file 7227 1625566883                                            
version 2
run General-0-20210706-17:20:59-8565
attr configname General
attr datetime 20210706-17:20:59
attr experiment General
attr inifile omnetpp.ini
attr iterationvars ""
attr iterationvarsf ""
attr measurement ""
attr network ntuattack.simulations.whormhole.Vd
attr processid 8565
attr repetition 0
attr replication #0
attr resultdir results
attr runnumber 0
attr seedset 0
param **.wlan[*].typename "\"AckingWirelessInterface\""
param **.wlan[*].bitrate 2Mbps
param **.wlan[*].mac.headerLength 23B
param **.wlan[*].radio.typename "\"UnitDiskRadio\""
param **.wlan[*].radio.transmitter.headerLength 96b
param **.wlan[*].radio.transmitter.communicationRange 250m
param **.wlan[*].radio.transmitter.interferenceRange 0m
param **.wlan[*].radio.transmitter.detectionRange 0m
param **.wlan[*].radio.receiver.ignoreInterference true
param **.hasStatus true
param *.visualizer.sceneVisualizer.descriptionFigure "\"title\""
param *.visualizer.physicalLinkVisualizer.displayLinks true
param *.visualizer.physicalLinkVisualizer.packetFilter "\"UDP*\""
param *.visualizer.networkRouteVisualizer.displayRoutes true
param **.wlan[*].radio.transmitter.communicationRange 250m
param *.sender.numApps 1
param *.sender.app[0].typename "\"UdpBasicApp\""
param *.sender.app[0].destAddresses "\"receiver\""
param *.sender.app[0].destPort 1000
param *.sender.app[0].sendInterval 1s
param *.sender.app[0].startTime 0s
param *.sender.app[0].messageLength 512Byte
param *.sender.app[0].packetName "\"UDPdata\""
param *.receiver.numApps 1
param *.receiver.app[0].typename "\"UdpSink\""
param *.receiver.app[0].localPort 1000
param **.aodv.activeRouteTimeout 3s

vector 0 Vd.Wormholer_A.wlan[0].radio radioMode:vector ETV
attr interpolationmode sample-hold
attr source radioModeChanged
attr title "Radio mode, vector"
vector 1 Vd.Wormholer_B.wlan[0].radio radioMode:vector ETV
attr interpolationmode sample-hold
attr source radioModeChanged
attr title "Radio mode, vector"
vector 2 Vd.sender.wlan[0].radio radioMode:vector ETV
attr interpolationmode sample-hold
attr source radioModeChanged
attr title "Radio mode, vector"
vector 3 Vd.receiver.wlan[0].radio radioMode:vector ETV
attr interpolationmode sample-hold
attr source radioModeChanged
attr title "Radio mode, vector"
vector 4 Vd.Wormholer_A.wlan[0].radio receptionState:vector ETV
attr interpolationmode sample-hold
attr source receptionStateChanged
attr title "Radio reception state, vector"
vector 5 Vd.Wormholer_A.wlan[0].radio transmissionState:vector ETV
attr interpolationmode sample-hold
attr source transmissionStateChanged
attr title "Radio transmission state, vector"
vector 6 Vd.Wormholer_B.wlan[0].radio receptionState:vector ETV
attr interpolationmode sample-hold
attr source receptionStateChanged
attr title "Radio reception state, vector"
vector 7 Vd.Wormholer_B.wlan[0].radio transmissionState:vector ETV
attr interpolationmode sample-hold
attr source transmissionStateChanged
attr title "Radio transmission state, vector"
vector 8 Vd.sender.wlan[0].radio receptionState:vector ETV
attr interpolationmode sample-hold
attr source receptionStateChanged
attr title "Radio reception state, vector"
vector 9 Vd.sender.wlan[0].radio transmissionState:vector ETV
attr interpolationmode sample-hold
attr source transmissionStateChanged
attr title "Radio transmission state, vector"
vector 10 Vd.receiver.wlan[0].radio receptionState:vector ETV
attr interpolationmode sample-hold
attr source receptionStateChanged
attr title "Radio reception state, vector"
vector 11 Vd.receiver.wlan[0].radio transmissionState:vector ETV
attr interpolationmode sample-hold
attr source transmissionStateChanged
attr title "Radio transmission state, vector"
vector 12 Vd.sender.app[0] packetSent:vector(packetBytes) ETV
attr interpolationmode none
attr source packetSent
attr title "packets sent, vector(packetBytes)"
vector 13 Vd.sender.udp packetSent:vector(packetBytes) ETV
attr interpolationmode none
attr source packetSent
attr title "packets sent, vector(packetBytes)"
vector 14 Vd.sender.wlan[0].mac rcvdPkFromHl:vector(packetBytes) ETV
attr interpolationmode none
attr source packetReceivedFromUpper
attr title "packets received from higher layer, vector(packetBytes)"
vector 15 Vd.sender.wlan[0].mac.queue packetPushed:vector(packetBytes) ETV
attr interpolationmode none
attr title "packet pushed, vector(packetBytes)"
vector 16 Vd.sender.wlan[0].mac.queue queueLength:vector ETV
attr interpolationmode sample-hold
attr source "count(packetPushed) - count(packetPopped) - count(packetRemoved) - count(packetDropped)"
attr title "queue length, vector"
vector 17 Vd.sender.wlan[0].mac.queue packetPopped:vector(packetBytes) ETV
attr interpolationmode none
attr title "packet popped, vector(packetBytes)"
vector 18 Vd.sender.wlan[0].mac.queue queueingTime:vector ETV
attr interpolationmode none
attr source queueingTime(packetPopped)
attr title "queueing times, vector"
attr unit s
vector 19 Vd.sender.wlan[0].mac sentDownPk:vector(packetBytes) ETV
attr interpolationmode none
attr source packetSentToLower
attr title "packets sent to lower layer, vector(packetBytes)"
vector 20 Vd.Wormholer_A.wlan[0].mac rcvdPkFromLl:vector(packetBytes) ETV
attr interpolationmode none
attr source packetReceivedFromLower
attr title "packets received from lower layer, vector(packetBytes)"
vector 21 Vd.Wormholer_A.wlan[0].mac passedUpPk:vector(packetBytes) ETV
attr interpolationmode none
attr source packetSentToUpper
attr title "packets passed to higher layer, vector(packetBytes)"
vector 22 Vd.Wormholer_A.udp packetReceived:vector(packetBytes) ETV
attr interpolationmode none
attr source packetReceived
attr title "packets received, vector(packetBytes)"
vector 23 Vd.Wormholer_A.udp passedUpPk:vector(count) ETV
attr interpolationmode none
attr source packetSentToUpper
attr title "packets passed up, vector(count)"
vector 24 Vd.Wormholer_A.udp packetSent:vector(packetBytes) ETV
attr interpolationmode none
attr source packetSent
attr title "packets sent, vector(packetBytes)"
0	5999 24 0 0 0 0 3 0 4 4 16
1	6023 24 0 0 0 0 3 0 4 4 16
2	6047 24 0 0 0 0 3 0 4 4 16
3	6071 24 0 0 0 0 3 0 4 4 16
4	6095 74 0 47 0 0.323014196734 4 1 3 8 20
5	6169 8 0 0 0 0 1 1 1 1 1
6	6177 8 0 0 0 0 1 1 1 1 1
7	6185 8 0 0 0 0 1 1 1 1 1
8	6193 8 0 0 0 0 1 1 1 1 1
9	6201 74 0 46 0 0.323013816852 4 1 2 6 10
10	6275 9 0 0 0 0 1 1 1 1 1
11	6284 9 0 0 0 0 1 1 1 1 1
12	6293 12 11 11 0 0 1 512 512 512 262144
13	6305 60 14 43 0 0.323013816852 3 32 520 584 272448
14	6365 48 21 45 0.002964223082 0.323013816852 2 52 52 104 5408
15	6413 48 21 45 0.002964223082 0.323013816852 2 52 52 104 5408
16	6461 92 21 45 0.002964223082 0.323013816852 4 0 1 2 2
17	6553 48 21 45 0.002964223082 0.323013816852 2 52 52 104 5408
18	6601 46 21 45 0.002964223082 0.323013816852 2 0 0 0 0
19	6647 48 21 45 0.002964223082 0.323013816852 2 75 75 150 11250
20	6695 24 28 28 0.003312602964 0.003312602964 1 75 75 75 5625
21	6719 24 28 28 0.003312602964 0.003312602964 1 52 52 52 2704
22	6743 24 30 30 0.003312602964 0.003312602964 1 32 32 32 1024
23	6767 23 30 30 0.003312602964 0.003312602964 1 1 1 1 1
24	6790 48 35 38 0.006888549789 0.011109878509 2 32 32 64 2048
vector 25 Vd.sender.app[0] throughput:vector ETV
attr source throughput(packetReceived)
attr title "throughput, vector"
attr unit bps
vector 26 Vd.receiver.app[0] throughput:vector ETV
attr source throughput(packetReceived)
attr title "throughput, vector"
attr unit bps
25	7108 59 47 47 0.1 0.323014964441 4 0 0 0 0
26	7167 59 47 47 0.1 0.323014964441 4 0 0 0 0

