file 60282 1625195497                                           
version 2
run General-0-20210702-10:10:59-4130
attr configname General
attr datetime 20210702-10:10:59
attr experiment General
attr inifile omnetpp.ini
attr iterationvars ""
attr iterationvarsf ""
attr measurement ""
attr network SimpleSinkhole
attr processid 4130
attr repetition 0
attr replication #0
attr resultdir results
attr runnumber 0
attr seedset 0
param **.wlan[*].typename "\"AckingWirelessInterface\""
param **.wlan[*].bitrate 2Mbps
param **.wlan[*].mac.headerLength 23B
param **.wlan[*].radio.typename "\"UnitDiskRadio\""
param **.wlan[*].radio.transmitter.headerLength 96b
param **.wlan[*].radio.transmitter.communicationRange 200m
param **.wlan[*].radio.transmitter.interferenceRange 0m
param **.wlan[*].radio.transmitter.detectionRange 0m
param **.wlan[*].radio.receiver.ignoreInterference true
param **.hasStatus true
param *.visualizer.sceneVisualizer.descriptionFigure "\"title\""
param *.visualizer.mediumVisualizer.displaySignals true
param *.visualizer.physicalLinkVisualizer.displayLinks true
param *.visualizer.physicalLinkVisualizer.packetFilter "\"UDP*\""
param **.wlan[*].radio.transmitter.communicationRange 180m
param *.sender.wlan[0].radio.displayCommunicationRange true
param *.receiver.wlan[0].radio.displayCommunicationRange true
param *.sender.numApps 1
param *.sender.app[0].typename "\"UdpBasicApp\""
param *.sender.app[0].destAddresses "\"receiver\""
param *.sender.app[0].destPort 1000
param *.sender.app[0].sendInterval 1s
param *.sender.app[0].startTime 0s
param *.sender.app[0].messageLength 512Byte
param *.sender.app[0].packetName "\"UDPdata\""
param *.receiver.numApps 1
param *.receiver.app[0].typename "\"UdpSink\""
param *.receiver.app[0].localPort 1000
param **.aodv.activeRouteTimeout 3s

vector 0 SimpleSinkhole.sender.wlan[0].radio radioMode:vector ETV
attr interpolationmode sample-hold
attr source radioModeChanged
attr title "Radio mode, vector"
vector 1 SimpleSinkhole.receiver.wlan[0].radio radioMode:vector ETV
attr interpolationmode sample-hold
attr source radioModeChanged
attr title "Radio mode, vector"
vector 2 SimpleSinkhole.host1.wlan[0].radio radioMode:vector ETV
attr interpolationmode sample-hold
attr source radioModeChanged
attr title "Radio mode, vector"
vector 3 SimpleSinkhole.host2.wlan[0].radio radioMode:vector ETV
attr interpolationmode sample-hold
attr source radioModeChanged
attr title "Radio mode, vector"
vector 4 SimpleSinkhole.host3.wlan[0].radio radioMode:vector ETV
attr interpolationmode sample-hold
attr source radioModeChanged
attr title "Radio mode, vector"
vector 5 SimpleSinkhole.host4.wlan[0].radio radioMode:vector ETV
attr interpolationmode sample-hold
attr source radioModeChanged
attr title "Radio mode, vector"
vector 6 SimpleSinkhole.attacker.wlan[0].radio radioMode:vector ETV
attr interpolationmode sample-hold
attr source radioModeChanged
attr title "Radio mode, vector"
vector 7 SimpleSinkhole.attacker1.wlan[0].radio radioMode:vector ETV
attr interpolationmode sample-hold
attr source radioModeChanged
attr title "Radio mode, vector"
vector 8 SimpleSinkhole.host5.wlan[0].radio radioMode:vector ETV
attr interpolationmode sample-hold
attr source radioModeChanged
attr title "Radio mode, vector"
vector 9 SimpleSinkhole.sender.wlan[0].radio receptionState:vector ETV
attr interpolationmode sample-hold
attr source receptionStateChanged
attr title "Radio reception state, vector"
vector 10 SimpleSinkhole.sender.wlan[0].radio transmissionState:vector ETV
attr interpolationmode sample-hold
attr source transmissionStateChanged
attr title "Radio transmission state, vector"
vector 11 SimpleSinkhole.receiver.wlan[0].radio receptionState:vector ETV
attr interpolationmode sample-hold
attr source receptionStateChanged
attr title "Radio reception state, vector"
vector 12 SimpleSinkhole.receiver.wlan[0].radio transmissionState:vector ETV
attr interpolationmode sample-hold
attr source transmissionStateChanged
attr title "Radio transmission state, vector"
vector 13 SimpleSinkhole.host1.wlan[0].radio receptionState:vector ETV
attr interpolationmode sample-hold
attr source receptionStateChanged
attr title "Radio reception state, vector"
vector 14 SimpleSinkhole.host1.wlan[0].radio transmissionState:vector ETV
attr interpolationmode sample-hold
attr source transmissionStateChanged
attr title "Radio transmission state, vector"
vector 15 SimpleSinkhole.host2.wlan[0].radio receptionState:vector ETV
attr interpolationmode sample-hold
attr source receptionStateChanged
attr title "Radio reception state, vector"
vector 16 SimpleSinkhole.host2.wlan[0].radio transmissionState:vector ETV
attr interpolationmode sample-hold
attr source transmissionStateChanged
attr title "Radio transmission state, vector"
vector 17 SimpleSinkhole.host3.wlan[0].radio receptionState:vector ETV
attr interpolationmode sample-hold
attr source receptionStateChanged
attr title "Radio reception state, vector"
vector 18 SimpleSinkhole.host3.wlan[0].radio transmissionState:vector ETV
attr interpolationmode sample-hold
attr source transmissionStateChanged
attr title "Radio transmission state, vector"
vector 19 SimpleSinkhole.host4.wlan[0].radio receptionState:vector ETV
attr interpolationmode sample-hold
attr source receptionStateChanged
attr title "Radio reception state, vector"
vector 20 SimpleSinkhole.host4.wlan[0].radio transmissionState:vector ETV
attr interpolationmode sample-hold
attr source transmissionStateChanged
attr title "Radio transmission state, vector"
vector 21 SimpleSinkhole.attacker.wlan[0].radio receptionState:vector ETV
attr interpolationmode sample-hold
attr source receptionStateChanged
attr title "Radio reception state, vector"
vector 22 SimpleSinkhole.attacker.wlan[0].radio transmissionState:vector ETV
attr interpolationmode sample-hold
attr source transmissionStateChanged
attr title "Radio transmission state, vector"
vector 23 SimpleSinkhole.attacker1.wlan[0].radio receptionState:vector ETV
attr interpolationmode sample-hold
attr source receptionStateChanged
attr title "Radio reception state, vector"
vector 24 SimpleSinkhole.attacker1.wlan[0].radio transmissionState:vector ETV
attr interpolationmode sample-hold
attr source transmissionStateChanged
attr title "Radio transmission state, vector"
vector 25 SimpleSinkhole.host5.wlan[0].radio receptionState:vector ETV
attr interpolationmode sample-hold
attr source receptionStateChanged
attr title "Radio reception state, vector"
vector 26 SimpleSinkhole.host5.wlan[0].radio transmissionState:vector ETV
attr interpolationmode sample-hold
attr source transmissionStateChanged
attr title "Radio transmission state, vector"
vector 27 SimpleSinkhole.sender.app[0] packetSent:vector(packetBytes) ETV
attr interpolationmode none
attr source packetSent
attr title "packets sent, vector(packetBytes)"
vector 28 SimpleSinkhole.sender.udp packetSent:vector(packetBytes) ETV
attr interpolationmode none
attr source packetSent
attr title "packets sent, vector(packetBytes)"
vector 29 SimpleSinkhole.sender.wlan[0].mac rcvdPkFromHl:vector(packetBytes) ETV
attr interpolationmode none
attr source packetReceivedFromUpper
attr title "packets received from higher layer, vector(packetBytes)"
vector 30 SimpleSinkhole.sender.wlan[0].mac.queue packetPushed:vector(packetBytes) ETV
attr interpolationmode none
attr title "packet pushed, vector(packetBytes)"
vector 31 SimpleSinkhole.sender.wlan[0].mac.queue queueLength:vector ETV
attr interpolationmode sample-hold
attr source "count(packetPushed) - count(packetPopped) - count(packetRemoved) - count(packetDropped)"
attr title "queue length, vector"
vector 32 SimpleSinkhole.sender.wlan[0].mac.queue packetPopped:vector(packetBytes) ETV
attr interpolationmode none
attr title "packet popped, vector(packetBytes)"
vector 33 SimpleSinkhole.sender.wlan[0].mac.queue queueingTime:vector ETV
attr interpolationmode none
attr source queueingTime(packetPopped)
attr title "queueing times, vector"
attr unit s
vector 34 SimpleSinkhole.sender.wlan[0].mac sentDownPk:vector(packetBytes) ETV
attr interpolationmode none
attr source packetSentToLower
attr title "packets sent to lower layer, vector(packetBytes)"
vector 35 SimpleSinkhole.attacker.wlan[0].mac rcvdPkFromLl:vector(packetBytes) ETV
attr interpolationmode none
attr source packetReceivedFromLower
attr title "packets received from lower layer, vector(packetBytes)"
vector 36 SimpleSinkhole.attacker.wlan[0].mac passedUpPk:vector(packetBytes) ETV
attr interpolationmode none
attr source packetSentToUpper
attr title "packets passed to higher layer, vector(packetBytes)"
vector 37 SimpleSinkhole.attacker.udp packetReceived:vector(packetBytes) ETV
attr interpolationmode none
attr source packetReceived
attr title "packets received, vector(packetBytes)"
vector 38 SimpleSinkhole.attacker.udp passedUpPk:vector(count) ETV
attr interpolationmode none
attr source packetSentToUpper
attr title "packets passed up, vector(count)"
vector 39 SimpleSinkhole.host1.wlan[0].mac rcvdPkFromLl:vector(packetBytes) ETV
attr interpolationmode none
attr source packetReceivedFromLower
attr title "packets received from lower layer, vector(packetBytes)"
vector 40 SimpleSinkhole.host1.wlan[0].mac passedUpPk:vector(packetBytes) ETV
attr interpolationmode none
attr source packetSentToUpper
attr title "packets passed to higher layer, vector(packetBytes)"
vector 41 SimpleSinkhole.host1.udp packetReceived:vector(packetBytes) ETV
attr interpolationmode none
attr source packetReceived
attr title "packets received, vector(packetBytes)"
vector 42 SimpleSinkhole.host1.udp passedUpPk:vector(count) ETV
attr interpolationmode none
attr source packetSentToUpper
attr title "packets passed up, vector(count)"
vector 43 SimpleSinkhole.host2.wlan[0].mac rcvdPkFromLl:vector(packetBytes) ETV
attr interpolationmode none
attr source packetReceivedFromLower
attr title "packets received from lower layer, vector(packetBytes)"
vector 44 SimpleSinkhole.host2.wlan[0].mac passedUpPk:vector(packetBytes) ETV
attr interpolationmode none
attr source packetSentToUpper
attr title "packets passed to higher layer, vector(packetBytes)"
vector 45 SimpleSinkhole.host2.udp packetReceived:vector(packetBytes) ETV
attr interpolationmode none
attr source packetReceived
attr title "packets received, vector(packetBytes)"
vector 46 SimpleSinkhole.host2.udp passedUpPk:vector(count) ETV
attr interpolationmode none
attr source packetSentToUpper
attr title "packets passed up, vector(count)"
vector 47 SimpleSinkhole.host2.udp packetSent:vector(packetBytes) ETV
attr interpolationmode none
attr source packetSent
attr title "packets sent, vector(packetBytes)"
vector 48 SimpleSinkhole.host2.wlan[0].mac rcvdPkFromHl:vector(packetBytes) ETV
attr interpolationmode none
attr source packetReceivedFromUpper
attr title "packets received from higher layer, vector(packetBytes)"
vector 49 SimpleSinkhole.host2.wlan[0].mac.queue packetPushed:vector(packetBytes) ETV
attr interpolationmode none
attr title "packet pushed, vector(packetBytes)"
vector 50 SimpleSinkhole.host2.wlan[0].mac.queue queueLength:vector ETV
attr interpolationmode sample-hold
attr source "count(packetPushed) - count(packetPopped) - count(packetRemoved) - count(packetDropped)"
attr title "queue length, vector"
vector 51 SimpleSinkhole.host2.wlan[0].mac.queue packetPopped:vector(packetBytes) ETV
attr interpolationmode none
attr title "packet popped, vector(packetBytes)"
vector 52 SimpleSinkhole.host2.wlan[0].mac.queue queueingTime:vector ETV
attr interpolationmode none
attr source queueingTime(packetPopped)
attr title "queueing times, vector"
attr unit s
vector 53 SimpleSinkhole.host2.wlan[0].mac sentDownPk:vector(packetBytes) ETV
attr interpolationmode none
attr source packetSentToLower
attr title "packets sent to lower layer, vector(packetBytes)"
vector 54 SimpleSinkhole.host3.wlan[0].mac rcvdPkFromLl:vector(packetBytes) ETV
attr interpolationmode none
attr source packetReceivedFromLower
attr title "packets received from lower layer, vector(packetBytes)"
vector 55 SimpleSinkhole.host3.wlan[0].mac passedUpPk:vector(packetBytes) ETV
attr interpolationmode none
attr source packetSentToUpper
attr title "packets passed to higher layer, vector(packetBytes)"
vector 56 SimpleSinkhole.host3.udp packetReceived:vector(packetBytes) ETV
attr interpolationmode none
attr source packetReceived
attr title "packets received, vector(packetBytes)"
vector 57 SimpleSinkhole.host3.udp passedUpPk:vector(count) ETV
attr interpolationmode none
attr source packetSentToUpper
attr title "packets passed up, vector(count)"
vector 58 SimpleSinkhole.sender.wlan[0].mac rcvdPkFromLl:vector(packetBytes) ETV
attr interpolationmode none
attr source packetReceivedFromLower
attr title "packets received from lower layer, vector(packetBytes)"
vector 59 SimpleSinkhole.sender.wlan[0].mac passedUpPk:vector(packetBytes) ETV
attr interpolationmode none
attr source packetSentToUpper
attr title "packets passed to higher layer, vector(packetBytes)"
vector 60 SimpleSinkhole.sender.udp packetReceived:vector(packetBytes) ETV
attr interpolationmode none
attr source packetReceived
attr title "packets received, vector(packetBytes)"
vector 61 SimpleSinkhole.sender.udp passedUpPk:vector(count) ETV
attr interpolationmode none
attr source packetSentToUpper
attr title "packets passed up, vector(count)"
vector 62 SimpleSinkhole.attacker1.wlan[0].mac rcvdPkFromLl:vector(packetBytes) ETV
attr interpolationmode none
attr source packetReceivedFromLower
attr title "packets received from lower layer, vector(packetBytes)"
vector 63 SimpleSinkhole.attacker1.wlan[0].mac passedUpPk:vector(packetBytes) ETV
attr interpolationmode none
attr source packetSentToUpper
attr title "packets passed to higher layer, vector(packetBytes)"
vector 64 SimpleSinkhole.attacker1.udp packetReceived:vector(packetBytes) ETV
attr interpolationmode none
attr source packetReceived
attr title "packets received, vector(packetBytes)"
vector 65 SimpleSinkhole.attacker1.udp passedUpPk:vector(count) ETV
attr interpolationmode none
attr source packetSentToUpper
attr title "packets passed up, vector(count)"
vector 66 SimpleSinkhole.attacker.udp packetSent:vector(packetBytes) ETV
attr interpolationmode none
attr source packetSent
attr title "packets sent, vector(packetBytes)"
vector 67 SimpleSinkhole.attacker.wlan[0].mac rcvdPkFromHl:vector(packetBytes) ETV
attr interpolationmode none
attr source packetReceivedFromUpper
attr title "packets received from higher layer, vector(packetBytes)"
vector 68 SimpleSinkhole.attacker.wlan[0].mac.queue packetPushed:vector(packetBytes) ETV
attr interpolationmode none
attr title "packet pushed, vector(packetBytes)"
vector 69 SimpleSinkhole.attacker.wlan[0].mac.queue queueLength:vector ETV
attr interpolationmode sample-hold
attr source "count(packetPushed) - count(packetPopped) - count(packetRemoved) - count(packetDropped)"
attr title "queue length, vector"
vector 70 SimpleSinkhole.attacker.wlan[0].mac.queue packetPopped:vector(packetBytes) ETV
attr interpolationmode none
attr title "packet popped, vector(packetBytes)"
vector 71 SimpleSinkhole.attacker.wlan[0].mac.queue queueingTime:vector ETV
attr interpolationmode none
attr source queueingTime(packetPopped)
attr title "queueing times, vector"
attr unit s
vector 72 SimpleSinkhole.attacker.wlan[0].mac sentDownPk:vector(packetBytes) ETV
attr interpolationmode none
attr source packetSentToLower
attr title "packets sent to lower layer, vector(packetBytes)"
vector 73 SimpleSinkhole.host4.wlan[0].mac rcvdPkFromLl:vector(packetBytes) ETV
attr interpolationmode none
attr source packetReceivedFromLower
attr title "packets received from lower layer, vector(packetBytes)"
vector 74 SimpleSinkhole.host4.wlan[0].mac passedUpPk:vector(packetBytes) ETV
attr interpolationmode none
attr source packetSentToUpper
attr title "packets passed to higher layer, vector(packetBytes)"
vector 75 SimpleSinkhole.host4.udp packetReceived:vector(packetBytes) ETV
attr interpolationmode none
attr source packetReceived
attr title "packets received, vector(packetBytes)"
vector 76 SimpleSinkhole.host4.udp passedUpPk:vector(count) ETV
attr interpolationmode none
attr source packetSentToUpper
attr title "packets passed up, vector(count)"
vector 77 SimpleSinkhole.host1.udp packetSent:vector(packetBytes) ETV
attr interpolationmode none
attr source packetSent
attr title "packets sent, vector(packetBytes)"
vector 78 SimpleSinkhole.host1.wlan[0].mac rcvdPkFromHl:vector(packetBytes) ETV
attr interpolationmode none
attr source packetReceivedFromUpper
attr title "packets received from higher layer, vector(packetBytes)"
vector 79 SimpleSinkhole.host1.wlan[0].mac.queue packetPushed:vector(packetBytes) ETV
attr interpolationmode none
attr title "packet pushed, vector(packetBytes)"
vector 80 SimpleSinkhole.host1.wlan[0].mac.queue queueLength:vector ETV
attr interpolationmode sample-hold
attr source "count(packetPushed) - count(packetPopped) - count(packetRemoved) - count(packetDropped)"
attr title "queue length, vector"
vector 81 SimpleSinkhole.host1.wlan[0].mac.queue packetPopped:vector(packetBytes) ETV
attr interpolationmode none
attr title "packet popped, vector(packetBytes)"
vector 82 SimpleSinkhole.host1.wlan[0].mac.queue queueingTime:vector ETV
attr interpolationmode none
attr source queueingTime(packetPopped)
attr title "queueing times, vector"
attr unit s
vector 83 SimpleSinkhole.host1.wlan[0].mac sentDownPk:vector(packetBytes) ETV
attr interpolationmode none
attr source packetSentToLower
attr title "packets sent to lower layer, vector(packetBytes)"
vector 84 SimpleSinkhole.host4.udp packetSent:vector(packetBytes) ETV
attr interpolationmode none
attr source packetSent
attr title "packets sent, vector(packetBytes)"
vector 85 SimpleSinkhole.host4.wlan[0].mac rcvdPkFromHl:vector(packetBytes) ETV
attr interpolationmode none
attr source packetReceivedFromUpper
attr title "packets received from higher layer, vector(packetBytes)"
vector 86 SimpleSinkhole.host4.wlan[0].mac.queue packetPushed:vector(packetBytes) ETV
attr interpolationmode none
attr title "packet pushed, vector(packetBytes)"
vector 87 SimpleSinkhole.host4.wlan[0].mac.queue queueLength:vector ETV
attr interpolationmode sample-hold
attr source "count(packetPushed) - count(packetPopped) - count(packetRemoved) - count(packetDropped)"
attr title "queue length, vector"
vector 88 SimpleSinkhole.host4.wlan[0].mac.queue packetPopped:vector(packetBytes) ETV
attr interpolationmode none
attr title "packet popped, vector(packetBytes)"
vector 89 SimpleSinkhole.host4.wlan[0].mac.queue queueingTime:vector ETV
attr interpolationmode none
attr source queueingTime(packetPopped)
attr title "queueing times, vector"
attr unit s
vector 90 SimpleSinkhole.host4.wlan[0].mac sentDownPk:vector(packetBytes) ETV
attr interpolationmode none
attr source packetSentToLower
attr title "packets sent to lower layer, vector(packetBytes)"
vector 91 SimpleSinkhole.receiver.wlan[0].mac rcvdPkFromLl:vector(packetBytes) ETV
attr interpolationmode none
attr source packetReceivedFromLower
attr title "packets received from lower layer, vector(packetBytes)"
vector 92 SimpleSinkhole.receiver.wlan[0].mac passedUpPk:vector(packetBytes) ETV
attr interpolationmode none
attr source packetSentToUpper
attr title "packets passed to higher layer, vector(packetBytes)"
vector 93 SimpleSinkhole.receiver.udp packetReceived:vector(packetBytes) ETV
attr interpolationmode none
attr source packetReceived
attr title "packets received, vector(packetBytes)"
vector 94 SimpleSinkhole.receiver.udp passedUpPk:vector(count) ETV
attr interpolationmode none
attr source packetSentToUpper
attr title "packets passed up, vector(count)"
vector 95 SimpleSinkhole.receiver.udp packetSent:vector(packetBytes) ETV
attr interpolationmode none
attr source packetSent
attr title "packets sent, vector(packetBytes)"
vector 96 SimpleSinkhole.receiver.ipv4.arp arpRequestSent:vector(packetBytes) ETV
attr source arpRequestSent
attr title "ARP request sent, vector(packetBytes)"
vector 97 SimpleSinkhole.receiver.wlan[0].mac rcvdPkFromHl:vector(packetBytes) ETV
attr interpolationmode none
attr source packetReceivedFromUpper
attr title "packets received from higher layer, vector(packetBytes)"
vector 98 SimpleSinkhole.receiver.wlan[0].mac.queue packetPushed:vector(packetBytes) ETV
attr interpolationmode none
attr title "packet pushed, vector(packetBytes)"
vector 99 SimpleSinkhole.receiver.wlan[0].mac.queue queueLength:vector ETV
attr interpolationmode sample-hold
attr source "count(packetPushed) - count(packetPopped) - count(packetRemoved) - count(packetDropped)"
attr title "queue length, vector"
vector 100 SimpleSinkhole.receiver.wlan[0].mac.queue packetPopped:vector(packetBytes) ETV
attr interpolationmode none
attr title "packet popped, vector(packetBytes)"
vector 101 SimpleSinkhole.receiver.wlan[0].mac.queue queueingTime:vector ETV
attr interpolationmode none
attr source queueingTime(packetPopped)
attr title "queueing times, vector"
attr unit s
vector 102 SimpleSinkhole.receiver.wlan[0].mac sentDownPk:vector(packetBytes) ETV
attr interpolationmode none
attr source packetSentToLower
attr title "packets sent to lower layer, vector(packetBytes)"
vector 103 SimpleSinkhole.host3.udp packetSent:vector(packetBytes) ETV
attr interpolationmode none
attr source packetSent
attr title "packets sent, vector(packetBytes)"
vector 104 SimpleSinkhole.host3.wlan[0].mac rcvdPkFromHl:vector(packetBytes) ETV
attr interpolationmode none
attr source packetReceivedFromUpper
attr title "packets received from higher layer, vector(packetBytes)"
vector 105 SimpleSinkhole.host3.wlan[0].mac.queue packetPushed:vector(packetBytes) ETV
attr interpolationmode none
attr title "packet pushed, vector(packetBytes)"
vector 106 SimpleSinkhole.host3.wlan[0].mac.queue queueLength:vector ETV
attr interpolationmode sample-hold
attr source "count(packetPushed) - count(packetPopped) - count(packetRemoved) - count(packetDropped)"
attr title "queue length, vector"
vector 107 SimpleSinkhole.host3.wlan[0].mac.queue packetPopped:vector(packetBytes) ETV
attr interpolationmode none
attr title "packet popped, vector(packetBytes)"
vector 108 SimpleSinkhole.host3.wlan[0].mac.queue queueingTime:vector ETV
attr interpolationmode none
attr source queueingTime(packetPopped)
attr title "queueing times, vector"
attr unit s
vector 109 SimpleSinkhole.host3.wlan[0].mac sentDownPk:vector(packetBytes) ETV
attr interpolationmode none
attr source packetSentToLower
attr title "packets sent to lower layer, vector(packetBytes)"
vector 110 SimpleSinkhole.host4.ipv4.arp arpReplySent:vector(packetBytes) ETV
attr source arpReplySent
attr title "ARP replies sent, vector(packetBytes)"
vector 111 SimpleSinkhole.attacker1.udp packetSent:vector(packetBytes) ETV
attr interpolationmode none
attr source packetSent
attr title "packets sent, vector(packetBytes)"
vector 112 SimpleSinkhole.attacker1.wlan[0].mac rcvdPkFromHl:vector(packetBytes) ETV
attr interpolationmode none
attr source packetReceivedFromUpper
attr title "packets received from higher layer, vector(packetBytes)"
vector 113 SimpleSinkhole.attacker1.wlan[0].mac.queue packetPushed:vector(packetBytes) ETV
attr interpolationmode none
attr title "packet pushed, vector(packetBytes)"
vector 114 SimpleSinkhole.attacker1.wlan[0].mac.queue queueLength:vector ETV
attr interpolationmode sample-hold
attr source "count(packetPushed) - count(packetPopped) - count(packetRemoved) - count(packetDropped)"
attr title "queue length, vector"
vector 115 SimpleSinkhole.attacker1.wlan[0].mac.queue packetPopped:vector(packetBytes) ETV
attr interpolationmode none
attr title "packet popped, vector(packetBytes)"
vector 116 SimpleSinkhole.attacker1.wlan[0].mac.queue queueingTime:vector ETV
attr interpolationmode none
attr source queueingTime(packetPopped)
attr title "queueing times, vector"
attr unit s
vector 117 SimpleSinkhole.attacker1.wlan[0].mac sentDownPk:vector(packetBytes) ETV
attr interpolationmode none
attr source packetSentToLower
attr title "packets sent to lower layer, vector(packetBytes)"
vector 118 SimpleSinkhole.host1.wlan[0].mac packetDropNotAddressedToUs:vector(packetBytes) ETV
attr interpolationmode none
attr source packetDropReasonIsNotAddressedToUs(packetDropped)
attr title "packet drop: not addressed to us, vector(packetBytes)"
vector 119 SimpleSinkhole.host5.wlan[0].mac rcvdPkFromLl:vector(packetBytes) ETV
attr interpolationmode none
attr source packetReceivedFromLower
attr title "packets received from lower layer, vector(packetBytes)"
vector 120 SimpleSinkhole.host5.wlan[0].mac passedUpPk:vector(packetBytes) ETV
attr interpolationmode none
attr source packetSentToUpper
attr title "packets passed to higher layer, vector(packetBytes)"
vector 121 SimpleSinkhole.host5.udp packetReceived:vector(packetBytes) ETV
attr interpolationmode none
attr source packetReceived
attr title "packets received, vector(packetBytes)"
vector 122 SimpleSinkhole.host5.udp passedUpPk:vector(count) ETV
attr interpolationmode none
attr source packetSentToUpper
attr title "packets passed up, vector(count)"
vector 123 SimpleSinkhole.host4.ipv4.arp arpRequestSent:vector(packetBytes) ETV
attr source arpRequestSent
attr title "ARP request sent, vector(packetBytes)"
vector 124 SimpleSinkhole.attacker.ipv4.arp arpReplySent:vector(packetBytes) ETV
attr source arpReplySent
attr title "ARP replies sent, vector(packetBytes)"
vector 125 SimpleSinkhole.host5.udp packetSent:vector(packetBytes) ETV
attr interpolationmode none
attr source packetSent
attr title "packets sent, vector(packetBytes)"
vector 126 SimpleSinkhole.host5.wlan[0].mac rcvdPkFromHl:vector(packetBytes) ETV
attr interpolationmode none
attr source packetReceivedFromUpper
attr title "packets received from higher layer, vector(packetBytes)"
vector 127 SimpleSinkhole.host5.wlan[0].mac.queue packetPushed:vector(packetBytes) ETV
attr interpolationmode none
attr title "packet pushed, vector(packetBytes)"
vector 128 SimpleSinkhole.host5.wlan[0].mac.queue queueLength:vector ETV
attr interpolationmode sample-hold
attr source "count(packetPushed) - count(packetPopped) - count(packetRemoved) - count(packetDropped)"
attr title "queue length, vector"
vector 129 SimpleSinkhole.host5.wlan[0].mac.queue packetPopped:vector(packetBytes) ETV
attr interpolationmode none
attr title "packet popped, vector(packetBytes)"
vector 130 SimpleSinkhole.host5.wlan[0].mac.queue queueingTime:vector ETV
attr interpolationmode none
attr source queueingTime(packetPopped)
attr title "queueing times, vector"
attr unit s
vector 131 SimpleSinkhole.host5.wlan[0].mac sentDownPk:vector(packetBytes) ETV
attr interpolationmode none
attr source packetSentToLower
attr title "packets sent to lower layer, vector(packetBytes)"
vector 132 SimpleSinkhole.host2.wlan[0].mac packetDropNotAddressedToUs:vector(packetBytes) ETV
attr interpolationmode none
attr source packetDropReasonIsNotAddressedToUs(packetDropped)
attr title "packet drop: not addressed to us, vector(packetBytes)"
vector 133 SimpleSinkhole.sender.wlan[0].mac packetDropNotAddressedToUs:vector(packetBytes) ETV
attr interpolationmode none
attr source packetDropReasonIsNotAddressedToUs(packetDropped)
attr title "packet drop: not addressed to us, vector(packetBytes)"
vector 134 SimpleSinkhole.host3.wlan[0].mac packetDropNotAddressedToUs:vector(packetBytes) ETV
attr interpolationmode none
attr source packetDropReasonIsNotAddressedToUs(packetDropped)
attr title "packet drop: not addressed to us, vector(packetBytes)"
vector 135 SimpleSinkhole.receiver.wlan[0].mac packetDropNotAddressedToUs:vector(packetBytes) ETV
attr interpolationmode none
attr source packetDropReasonIsNotAddressedToUs(packetDropped)
attr title "packet drop: not addressed to us, vector(packetBytes)"
vector 136 SimpleSinkhole.attacker.ipv4.arp arpRequestSent:vector(packetBytes) ETV
attr source arpRequestSent
attr title "ARP request sent, vector(packetBytes)"
vector 137 SimpleSinkhole.sender.ipv4.arp arpReplySent:vector(packetBytes) ETV
attr source arpReplySent
attr title "ARP replies sent, vector(packetBytes)"
vector 138 SimpleSinkhole.host4.wlan[0].mac packetDropNotAddressedToUs:vector(packetBytes) ETV
attr interpolationmode none
attr source packetDropReasonIsNotAddressedToUs(packetDropped)
attr title "packet drop: not addressed to us, vector(packetBytes)"
vector 139 SimpleSinkhole.attacker.ipv4.ip rcvdPkt:vector ETV
attr interpolationmode none
attr title "Number of packet received, vector"
vector 140 SimpleSinkhole.attacker.ipv4.ip droppings:vector ETV
attr interpolationmode none
attr title "Number of drops, vector"
vector 141 SimpleSinkhole.sender.app[0] throughput:vector ETV
attr source throughput(packetReceived)
attr title "throughput, vector"
attr unit bps
vector 142 SimpleSinkhole.receiver.app[0] throughput:vector ETV
attr source throughput(packetReceived)
attr title "throughput, vector"
attr unit bps
0	28793 24 0 0 0 0 3 0 4 4 16
1	28817 24 0 0 0 0 3 0 4 4 16
2	28841 24 0 0 0 0 3 0 4 4 16
3	28865 24 0 0 0 0 3 0 4 4 16
4	28889 24 0 0 0 0 3 0 4 4 16
5	28913 24 0 0 0 0 3 0 4 4 16
6	28937 24 0 0 0 0 3 0 4 4 16
7	28961 24 0 0 0 0 3 0 4 4 16
8	28985 24 0 0 0 0 3 0 4 4 16
9	29009 420 0 688 0 0.338439890774 19 1 3 37 91
10	29429 771 0 1496 0 20 48 1 2 72 120
11	30200 199 0 603 0 0.333143698734 9 1 3 17 41
12	30399 103 0 498 0 0.330818186128 5 1 2 7 11
13	30502 1681 0 1473 0 19.002300411151 69 1 3 137 341
14	32183 105 0 320 0 0.329222397936 5 1 2 7 11
15	32288 1565 0 1475 0 19.002300435439 64 1 3 127 315
16	33853 103 0 236 0 0.327104437522 5 1 2 7 11
17	33956 415 0 697 0 0.338440026913 18 1 3 35 85
18	34371 57 0 460 0 0.330570668654 3 1 2 4 6
19	34428 439 0 695 0 0.338440001027 19 1 3 37 91
20	34867 199 0 600 0 0.33314329446 9 1 2 13 21
21	35066 1539 0 1470 0 19.002300405263 63 1 3 125 311
22	36605 247 0 683 0 0.338439485511 11 1 2 16 26
23	36852 199 0 589 0 0.333107672864 9 1 3 17 41
24	37051 57 0 485 0 0.330682431803 3 1 2 4 6
25	37108 81 0 492 0 0.330683077652 4 1 3 7 15
26	37189 57 0 587 0 0.333107027015 3 1 2 4 6
27	37246 296 21 1492 0 20 21 512 512 10752 5505024
28	37542 345 24 1493 0 20 23 32 520 10984 5680448
29	37887 384 31 1495 0.002964223082 20 24 28 540 11472 6129792
30	38271 384 31 1495 0.002964223082 20 24 28 540 11472 6129792
31	38655 678 31 1495 0.002964223082 20 48 0 1 24 24
32	39333 384 31 1495 0.002964223082 20 24 28 540 11472 6129792
33	39717 339 31 1495 0.002964223082 20 24 0 0 0 0
34	40056 384 31 1495 0.002964223082 20 24 51 563 12024 6670200
35	40440 816 43 1471 0.003312628345 19.002300405263 31 51 563 12033 6394623
36	41256 816 43 1471 0.003312628345 19.002300405263 31 28 540 11320 5857504
37	42072 223 45 608 0.003312628345 0.333143809976 9 28 32 284 8976
38	42295 214 45 608 0.003312628345 0.333143809976 9 1 9 45 285
39	42509 890 48 1474 0.003312634233 19.002300411151 34 51 563 12182 6401842
40	43399 222 48 633 0.003312634233 0.337854943043 9 28 52 420 20496
41	43621 172 50 362 0.003312634233 0.329981373819 7 32 32 224 7168
42	43793 165 50 362 0.003312634233 0.329981373819 7 1 7 28 140
43	43958 817 53 1476 0.003312658521 19.002300435439 31 51 563 12009 6391599
44	44775 199 53 636 0.003312658521 0.337855008549 8 28 52 392 19712
45	44974 174 55 469 0.003312658521 0.330571081304 7 32 32 224 7168
46	45148 167 55 469 0.003312658521 0.330571081304 7 1 7 28 140
47	45315 49 63 224 0.006326475373 0.326756437522 2 32 32 64 2048
48	45364 49 65 226 0.006326475373 0.326756437522 2 52 52 104 5408
49	45413 49 65 226 0.006326475373 0.326756437522 2 52 52 104 5408
50	45462 94 65 226 0.006326475373 0.326756437522 4 0 1 2 2
51	45556 49 65 226 0.006326475373 0.326756437522 2 52 52 104 5408
52	45605 47 65 226 0.006326475373 0.326756437522 2 0 0 0 0
53	45652 49 65 226 0.006326475373 0.326756437522 2 75 75 150 11250
54	45701 199 82 698 0.006674888023 0.338440026913 8 51 75 548 38368
55	45900 149 82 647 0.006674888023 0.337855216387 6 28 52 288 14304
56	46049 124 84 489 0.006674888023 0.330682726134 5 32 32 160 5120
57	46173 119 84 489 0.006674888023 0.330682726134 5 1 5 15 55
58	46292 224 87 689 0.006674910812 0.338439890774 9 51 75 623 43993
59	46516 199 87 689 0.006674910812 0.338439890774 8 28 52 388 19312
60	46715 174 89 691 0.006674910812 0.338439890774 7 28 32 220 6928
61	46889 167 89 691 0.006674910812 0.338439890774 7 1 7 28 140
62	47056 99 92 590 0.006674999079 0.333107672864 4 75 75 300 22500
63	47155 99 92 590 0.006674999079 0.333107672864 4 52 52 208 10816
64	47254 99 94 592 0.006674999079 0.333107672864 4 32 32 128 4096
65	47353 95 94 592 0.006674999079 0.333107672864 4 1 4 10 30
66	47448 74 105 618 0.00688857517 0.337602674985 3 28 32 92 2832
67	47522 124 107 664 0.00688857517 0.338107485511 5 28 52 208 9280
68	47646 124 107 664 0.00688857517 0.338107485511 5 28 52 208 9280
69	47770 238 107 664 0.00688857517 0.338107485511 10 0 1 5 5
70	48008 124 107 664 0.00688857517 0.338107485511 5 28 52 208 9280
71	48132 119 107 664 0.00688857517 0.338107485511 5 0 0 0 0
72	48251 124 107 664 0.00688857517 0.338107485511 5 51 75 323 21493
73	48375 224 134 696 0.007237090686 0.338440001027 9 51 75 595 40385
74	48599 199 134 644 0.007237090686 0.337855190501 8 28 52 340 15472
75	48798 125 136 502 0.007237090686 0.330818590402 5 28 32 156 4880
76	48923 120 136 502 0.007237090686 0.330818590402 5 1 5 15 55
77	49043 50 147 308 0.007533962953 0.328874397936 2 32 32 64 2048
78	49093 50 149 310 0.007533962953 0.328874397936 2 52 52 104 5408
79	49143 50 149 310 0.007533962953 0.328874397936 2 52 52 104 5408
80	49193 96 149 310 0.007533962953 0.328874397936 4 0 1 2 2
81	49289 50 149 310 0.007533962953 0.328874397936 2 52 52 104 5408
82	49339 48 149 310 0.007533962953 0.328874397936 2 0 0 0 0
83	49387 50 149 310 0.007533962953 0.328874397936 2 75 75 150 11250
84	49437 50 346 512 0.329632973306 0.332306263428 2 28 32 60 1808
85	49487 99 348 572 0.329632973306 0.33281129446 4 28 52 156 6576
86	49586 99 348 572 0.329632973306 0.33281129446 4 28 52 156 6576
87	49685 190 348 572 0.329632973306 0.33281129446 8 0 1 4 4
88	49875 99 348 572 0.329632973306 0.33281129446 4 28 52 156 6576
89	49974 95 348 572 0.329632973306 0.33281129446 4 0 0 0 0
90	50069 99 348 572 0.329632973306 0.33281129446 4 51 75 248 15868
91	50168 99 365 604 0.32998137758 0.333143698734 4 51 75 248 15868
92	50267 74 365 529 0.32998137758 0.332558667702 3 28 52 108 4272
93	50341 24 367 367 0.32998137758 0.32998137758 1 32 32 32 1024
94	50365 23 367 367 0.32998137758 0.32998137758 1 1 1 1 1
95	50388 24 369 369 0.32998137758 0.32998137758 1 28 28 28 784
96	50412 24 370 370 0.32998137758 0.32998137758 1 28 28 28 784
97	50436 49 371 444 0.32998137758 0.330486186128 2 28 48 76 3088
98	50485 49 371 444 0.32998137758 0.330486186128 2 28 48 76 3088
99	50534 94 371 444 0.32998137758 0.330486186128 4 0 1 2 2
100	50628 51 371 444 0.32998137758 0.330486186128 2 28 48 76 3088
101	50679 49 371 444 0.32998137758 0.330486186128 2 0 0 0 0
102	50728 51 371 444 0.32998137758 0.330486186128 2 51 71 122 7642
103	50779 26 392 392 0.330222668654 0.330222668654 1 32 32 32 1024
104	50805 26 394 394 0.330222668654 0.330222668654 1 52 52 52 2704
105	50831 26 394 394 0.330222668654 0.330222668654 1 52 52 52 2704
106	50857 50 394 394 0.330222668654 0.330222668654 2 0 1 1 1
107	50907 26 394 394 0.330222668654 0.330222668654 1 52 52 52 2704
108	50933 25 394 394 0.330222668654 0.330222668654 1 0 0 0 0
109	50958 26 394 394 0.330222668654 0.330222668654 1 75 75 75 5625
110	50984 26 407 407 0.330233781854 0.330233781854 1 28 28 28 784
111	51010 26 426 426 0.330334431803 0.330334431803 1 32 32 32 1024
112	51036 26 428 428 0.330334431803 0.330334431803 1 52 52 52 2704
113	51062 26 428 428 0.330334431803 0.330334431803 1 52 52 52 2704
114	51088 50 428 428 0.330334431803 0.330334431803 2 0 1 1 1
115	51138 26 428 428 0.330334431803 0.330334431803 1 52 52 52 2704
116	51164 25 428 428 0.330334431803 0.330334431803 1 0 0 0 0
117	51189 26 428 428 0.330334431803 0.330334431803 1 75 75 75 5625
118	51215 693 440 1474 0.330486182367 19.002300411151 25 51 563 11555 6357265
119	51908 26 472 472 0.330571090965 0.330571090965 1 75 75 75 5625
120	51934 26 472 472 0.330571090965 0.330571090965 1 52 52 52 2704
121	51960 26 474 474 0.330571090965 0.330571090965 1 32 32 32 1024
122	51986 25 474 474 0.330571090965 0.330571090965 1 1 1 1 1
123	52011 26 513 513 0.332306263428 0.332306263428 1 28 28 28 784
124	52037 26 533 533 0.332558778944 0.332558778944 1 28 28 28 784
125	52063 26 550 550 0.332759027015 0.332759027015 1 32 32 32 1024
126	52089 26 552 552 0.332759027015 0.332759027015 1 52 52 52 2704
127	52115 26 552 552 0.332759027015 0.332759027015 1 52 52 52 2704
128	52141 50 552 552 0.332759027015 0.332759027015 2 0 1 1 1
129	52191 26 552 552 0.332759027015 0.332759027015 1 52 52 52 2704
130	52217 25 552 552 0.332759027015 0.332759027015 1 0 0 0 0
131	52242 26 552 552 0.332759027015 0.332759027015 1 75 75 75 5625
132	52268 641 566 1476 0.332811112508 19.002300435439 23 51 563 11433 6349623
133	52909 26 568 568 0.332811184207 0.332811184207 1 51 51 51 2601
134	52935 52 575 698 0.332811320346 0.338440026913 2 51 71 122 7642
135	52987 26 604 604 0.333143698734 0.333143698734 1 71 71 71 5041
136	53013 26 619 619 0.337602674985 0.337602674985 1 28 28 28 784
137	53039 26 640 640 0.337855080248 0.337855080248 1 28 28 28 784
138	53065 26 696 696 0.338440001027 0.338440001027 1 71 71 71 5041
139	53091 534 718 1472 0.340740296037 19.002300405263 20 1 20 210 2870
140	53625 534 718 1472 0.340740296037 19.002300405263 20 1 20 210 2870
141	54159 3061 1497 1497 0.1 20 200 0 0 0 0
142	57220 3061 1497 1497 0.1 20 200 0 0 0 0

