version 2
run IPv4ModerateFastMobility-0-20210323-15:55:32-4318
attr configname IPv4ModerateFastMobility
attr datetime 20210323-15:55:32
attr experiment IPv4ModerateFastMobility
attr inifile AODVnormal.ini
attr iterationvars ""
attr iterationvarsf ""
attr measurement ""
attr network AODVnormal
attr processid 4318
attr repetition 0
attr replication #0
attr resultdir results
attr runnumber 0
attr seedset 0
param **.aodv.activeRouteTimeout 3s
param **.*.mobility.speed "normal(8mps, 0.01mps)"
param **.aodv.activeRouteTimeout 3s
param **.*.mobility.typename "\"MassMobility\""
param **.*.mobility.changeInterval "normal(5s, 0.1s)"
param **.*.mobility.angleDelta "normal(0deg, 30deg)"
param **.*.mobility.speed "normal(2mps, 0.01mps)"
param **.host[*].mobility.typename "\"StationaryMobility\""
param **.wlan[*].typename "\"AckingWirelessInterface\""
param **.wlan[*].bitrate 2Mbps
param **.wlan[*].mac.headerLength 23B
param **.wlan[*].radio.typename "\"UnitDiskRadio\""
param **.wlan[*].radio.transmitter.headerLength 96b
param **.wlan[*].radio.transmitter.communicationRange 250m
param **.wlan[*].radio.transmitter.interferenceRange 0m
param **.wlan[*].radio.transmitter.detectionRange 0m
param **.wlan[*].radio.receiver.ignoreInterference true
param *.numHosts 20
param *.numSends 5
param *.numReceives 5
param **.mobility.constraintAreaMinZ 0m
param **.mobility.constraintAreaMaxZ 0m
param **.mobility.constraintAreaMinX 20m
param **.mobility.constraintAreaMinY 20m
param **.mobility.constraintAreaMaxX 980m
param **.mobility.constraintAreaMaxY 780m
param *.visualizer.dataLinkVisualizer.displayLinks true
param *.visualizer.networkRouteVisualizer.displayRoutes true
param *.visualizer.networkRouteVisualizer.lineShift 0
param *.visualizer.networkRouteVisualizer.packetFilter "\"UDPData*\""
param *.S[0].numApps 1
param *.S[0].app[0].typename "\"UdpBasicApp\""
param *.S[0].app[0].destAddresses "\"R[0]\""
param *.S[0].app[0].destPort 1000
param *.S[0].app[0].sendInterval 1s
param *.S[0].app[0].startTime 0s
param *.S[0].app[0].messageLength 512Byte
param *.S[0].app[0].packetName "\"UDPdata\""
param *.R[0].numApps 1
param *.R[0].app[0].typename "\"UdpSink\""
param *.R[0].app[0].localPort 1000
param *.S[1].numApps 1
param *.S[1].app[0].typename "\"UdpBasicApp\""
param *.S[1].app[0].destAddresses "\"R[1]\""
param *.S[1].app[0].destPort 1000
param *.S[1].app[0].sendInterval 1s
param *.S[1].app[0].startTime 0s
param *.S[1].app[0].messageLength 512Byte
param *.S[1].app[0].packetName "\"UDPdata\""
param *.R[1].numApps 1
param *.R[1].app[0].typename "\"UdpSink\""
param *.R[1].app[0].localPort 1000
param *.S[2].numApps 1
param *.S[2].app[0].typename "\"UdpBasicApp\""
param *.S[2].app[0].destAddresses "\"R[2]\""
param *.S[2].app[0].destPort 1000
param *.S[2].app[0].sendInterval 1s
param *.S[2].app[0].startTime 0s
param *.S[2].app[0].messageLength 512Byte
param *.S[2].app[0].packetName "\"UDPdata\""
param *.R[2].numApps 1
param *.R[2].app[0].typename "\"UdpSink\""
param *.R[2].app[0].localPort 1000
param *.S[3].numApps 1
param *.S[3].app[0].typename "\"UdpBasicApp\""
param *.S[3].app[0].destAddresses "\"R[3]\""
param *.S[3].app[0].destPort 1000
param *.S[3].app[0].sendInterval 1s
param *.S[3].app[0].startTime 0s
param *.S[3].app[0].messageLength 512Byte
param *.S[3].app[0].packetName "\"UDPdata\""
param *.R[3].numApps 1
param *.R[3].app[0].typename "\"UdpSink\""
param *.R[3].app[0].localPort 1000
param *.S[4].numApps 1
param *.S[4].app[0].typename "\"UdpBasicApp\""
param *.S[4].app[0].destAddresses "\"R[4]\""
param *.S[4].app[0].destPort 1000
param *.S[4].app[0].sendInterval 1s
param *.S[4].app[0].startTime 0s
param *.S[4].app[0].messageLength 512Byte
param *.S[4].app[0].packetName "\"UDPdata\""
param *.R[4].numApps 1
param *.R[4].app[0].typename "\"UdpSink\""
param *.R[4].app[0].localPort 1000
param **.hasStatus true

scalar AODVnormal.radioMedium.propagation "Arrival computation count" 548855
scalar AODVnormal.radioMedium "transmission count" 17705
scalar AODVnormal.radioMedium "signal send count" 548855
scalar AODVnormal.radioMedium "reception computation count" 548731
scalar AODVnormal.radioMedium "interference computation count" 1509428
scalar AODVnormal.radioMedium "reception decision computation count" 96236
scalar AODVnormal.radioMedium "listening decision computation count" 864461
scalar AODVnormal.radioMedium "reception cache hit" 85.727944261239
attr unit %
scalar AODVnormal.radioMedium "interference cache hit" 66.666666666667
attr unit %
scalar AODVnormal.radioMedium "noise cache hit" 0
attr unit %
scalar AODVnormal.radioMedium "snir cache hit" 50
attr unit %
scalar AODVnormal.radioMedium "reception decision cache hit" 50
attr unit %
scalar AODVnormal.radioMedium "reception result cache hit" 0
attr unit %
scalar AODVnormal.N[0].lo[0].lo rcvdPkFromHl:count 0
attr interpolationmode none
attr source packetReceivedFromUpper
attr title "packets received from higher layer, count"
scalar AODVnormal.N[0].lo[0].lo rcvdPkFromHl:sum(packetBytes) 0
attr interpolationmode none
attr source packetReceivedFromUpper
attr title "packets received from higher layer, sum(packetBytes)"
scalar AODVnormal.N[0].lo[0].lo passedUpPk:count 0
attr interpolationmode none
attr source packetSentToUpper
attr title "packets passed to higher layer, count"
scalar AODVnormal.N[0].lo[0].lo passedUpPk:sum(packetBytes) 0
attr interpolationmode none
attr source packetSentToUpper
attr title "packets passed to higher layer, sum(packetBytes)"
scalar AODVnormal.N[0].wlan[0].mac.queue packetPopped:count 614
attr interpolationmode none
attr title "packet popped, count"
scalar AODVnormal.N[0].wlan[0].mac.queue packetPopped:sum(packetBytes) 67212
attr interpolationmode none
attr title "packet popped, sum(packetBytes)"
statistic AODVnormal.N[0].wlan[0].mac.queue queueingTime:histogram
field count 614
field mean 0.0017004522380179
field stddev 0.012155613367259
field min 0
field max 0.097911661546
field sum 1.044077674143
field sqrsum 0.092351632190582
attr interpolationmode none
attr source queueingTime(packetPopped)
attr title "queueing times, histogram"
attr unit s
bin	-inf	0
bin	-0.5	0
bin	-0.48	0
bin	-0.46	0
bin	-0.44	0
bin	-0.42	0
bin	-0.4	0
bin	-0.38	0
bin	-0.36	0
bin	-0.34	0
bin	-0.32	0
bin	-0.3	0
bin	-0.28	0
bin	-0.26	0
bin	-0.24	0
bin	-0.22	0
bin	-0.2	0
bin	-0.18	0
bin	-0.16	0
bin	-0.14	0
bin	-0.12	0
bin	-0.1	0
bin	-0.08	0
bin	-0.06	0
bin	-0.04	0
bin	-0.02	0
bin	0	602
bin	0.02	1
bin	0.04	1
bin	0.06	0
bin	0.08	10
bin	0.1	0
bin	0.12	0
bin	0.14	0
bin	0.16	0
bin	0.18	0
bin	0.2	0
bin	0.22	0
bin	0.24	0
bin	0.26	0
bin	0.28	0
bin	0.3	0
bin	0.32	0
bin	0.34	0
bin	0.36	0
bin	0.38	0
bin	0.4	0
bin	0.42	0
bin	0.44	0
bin	0.46	0
bin	0.48	0
bin	0.5	0
scalar AODVnormal.N[0].wlan[0].mac.queue queueLength:max 2
attr interpolationmode sample-hold
attr source "count(packetPushed) - count(packetPopped) - count(packetRemoved) - count(packetDropped)"
attr title "queue length, max"
scalar AODVnormal.N[0].wlan[0].mac.queue queueLength:timeavg 0.0052290494851459
attr interpolationmode sample-hold
attr source "count(packetPushed) - count(packetPopped) - count(packetRemoved) - count(packetDropped)"
attr title "queue length, timeavg"
scalar AODVnormal.N[0].wlan[0].mac.queue packetPushed:count 614
attr interpolationmode none
attr title "packet pushed, count"
scalar AODVnormal.N[0].wlan[0].mac.queue packetPushed:sum(packetBytes) 67212
attr interpolationmode none
attr title "packet pushed, sum(packetBytes)"
scalar AODVnormal.N[0].wlan[0].mac.queue packetDropQueueOverflow:count 0
attr interpolationmode none
attr source packetDropReasonIsQueueOverflow(packetDropped)
attr title "packet drops: queue overflow, count"
scalar AODVnormal.N[0].wlan[0].mac.queue packetDropQueueOverflow:sum(packetBytes) 0
attr interpolationmode none
attr source packetDropReasonIsQueueOverflow(packetDropped)
attr title "packet drops: queue overflow, sum(packetBytes)"
scalar AODVnormal.N[0].wlan[0].mac.queue packetRemoved:count 0
attr interpolationmode none
attr title "packets removed, count"
scalar AODVnormal.N[0].wlan[0].mac.queue packetRemoved:sum(packetBytes) 0
attr interpolationmode none
attr title "packets removed, sum(packetBytes)"
scalar AODVnormal.N[0].wlan[0].mac rcvdPkFromLl:count 4150
attr interpolationmode none
attr source packetReceivedFromLower
attr title "packets received from lower layer, count"
scalar AODVnormal.N[0].wlan[0].mac rcvdPkFromLl:sum(packetBytes) 570838
attr interpolationmode none
attr source packetReceivedFromLower
attr title "packets received from lower layer, sum(packetBytes)"
scalar AODVnormal.N[0].wlan[0].mac sentDownPk:count 614
attr interpolationmode none
attr source packetSentToLower
attr title "packets sent to lower layer, count"
scalar AODVnormal.N[0].wlan[0].mac sentDownPk:sum(packetBytes) 81334
attr interpolationmode none
attr source packetSentToLower
attr title "packets sent to lower layer, sum(packetBytes)"
scalar AODVnormal.N[0].wlan[0].mac rcvdPkFromHl:count 614
attr interpolationmode none
attr source packetReceivedFromUpper
attr title "packets received from higher layer, count"
scalar AODVnormal.N[0].wlan[0].mac rcvdPkFromHl:sum(packetBytes) 67212
attr interpolationmode none
attr source packetReceivedFromUpper
attr title "packets received from higher layer, sum(packetBytes)"
scalar AODVnormal.N[0].wlan[0].mac passedUpPk:count 3088
attr interpolationmode none
attr source packetSentToUpper
attr title "packets passed to higher layer, count"
scalar AODVnormal.N[0].wlan[0].mac passedUpPk:sum(packetBytes) 192460
attr interpolationmode none
attr source packetSentToUpper
attr title "packets passed to higher layer, sum(packetBytes)"
scalar AODVnormal.N[0].wlan[0].mac packetDropIncorrectlyReceived:count 0
attr interpolationmode none
attr source packetDropReasonIsIncorrectlyReceived(packetDropped)
attr title "packet drop: incorrectly received, count"
scalar AODVnormal.N[0].wlan[0].mac packetDropIncorrectlyReceived:sum(packetBytes) 0
attr interpolationmode none
attr source packetDropReasonIsIncorrectlyReceived(packetDropped)
attr title "packet drop: incorrectly received, sum(packetBytes)"
scalar AODVnormal.N[0].wlan[0].mac packetDropInterfaceDown:count 0
attr interpolationmode none
attr source packetDropReasonIsInterfaceDown(packetDropped)
attr title "packet drop: interface down, count"
scalar AODVnormal.N[0].wlan[0].mac packetDropInterfaceDown:sum(packetBytes) 0
attr interpolationmode none
attr source packetDropReasonIsInterfaceDown(packetDropped)
attr title "packet drop: interface down, sum(packetBytes)"
scalar AODVnormal.N[0].wlan[0].mac packetDropNotAddressedToUs:count 1062
attr interpolationmode none
attr source packetDropReasonIsNotAddressedToUs(packetDropped)
attr title "packet drop: not addressed to us, count"
scalar AODVnormal.N[0].wlan[0].mac packetDropNotAddressedToUs:sum(packetBytes) 307354
attr interpolationmode none
attr source packetDropReasonIsNotAddressedToUs(packetDropped)
attr title "packet drop: not addressed to us, sum(packetBytes)"
scalar AODVnormal.N[0].wlan[0].mac linkBroken:count 30
attr interpolationmode none
attr source linkBroken
attr title "link break, count"
scalar AODVnormal.N[0].wlan[0].radio radioMode:count 3
attr interpolationmode sample-hold
attr source radioModeChanged
attr title "Radio mode, count"
scalar AODVnormal.N[0].wlan[0].radio receptionState:count 9128
attr interpolationmode sample-hold
attr source receptionStateChanged
attr title "Radio reception state, count"
scalar AODVnormal.N[0].wlan[0].radio transmissionState:count 1229
attr interpolationmode sample-hold
attr source transmissionStateChanged
attr title "Radio transmission state, count"
statistic AODVnormal.N[0].wlan[0].radio minSnir:histogram
field count 0
field mean -nan
field stddev nan
field min nan
field max nan
field sum 0
field sqrsum 0
attr source minimumSnir(packetSentToUpper)
attr title "Min SNIR, histogram"
bin	-inf	0
bin	0	0
bin	1	0
statistic AODVnormal.N[0].wlan[0].radio packetErrorRate:histogram
field count 4150
field mean 0.31060240963855
field stddev 0.46279602682281
field min 0
field max 1
field sum 1289
field sqrsum 1289
attr source packetErrorRate(packetSentToUpper)
attr title "Packet error rate, histogram"
bin	-inf	0
bin	0	2861
bin	1	1289
bin	2	0
statistic AODVnormal.N[0].wlan[0].radio bitErrorRate:histogram
field count 4150
field mean 0.31060240963855
field stddev 0.46279602682281
field min 0
field max 1
field sum 1289
field sqrsum 1289
attr source bitErrorRate(packetSentToUpper)
attr title "Bit error rate, histogram"
bin	-inf	0
bin	0	2861
bin	1	1289
bin	2	0
statistic AODVnormal.N[0].wlan[0].radio symbolErrorRate:histogram
field count 4150
field mean 0.31060240963855
field stddev 0.46279602682281
field min 0
field max 1
field sum 1289
field sqrsum 1289
attr source symbolErrorRate(packetSentToUpper)
attr title "Symbol error rate, histogram"
bin	-inf	0
bin	0	2861
bin	1	1289
bin	2	0
scalar AODVnormal.N[0].ipv4.ip packetDropAddressResolutionFailed:count 0
attr interpolationmode none
attr source packetDropReasonIsAddressResolutionFailed(packetDropped)
attr title "packet drop: address resolution failed, count"
scalar AODVnormal.N[0].ipv4.ip packetDropAddressResolutionFailed:sum(packetBytes) 0
attr interpolationmode none
attr source packetDropReasonIsAddressResolutionFailed(packetDropped)
attr title "packet drop: address resolution failed, sum(packetBytes)"
scalar AODVnormal.N[0].ipv4.ip packetDropHopLimitReached:count 0
attr interpolationmode none
attr source packetDropReasonIsHopLimitReached(packetDropped)
attr title "packet drop: hop limit reached, count"
scalar AODVnormal.N[0].ipv4.ip packetDropHopLimitReached:sum(packetBytes) 0
attr interpolationmode none
attr source packetDropReasonIsHopLimitReached(packetDropped)
attr title "packet drop: hop limit reached, sum(packetBytes)"
scalar AODVnormal.N[0].ipv4.ip packetDropForwardingDisabled:count 0
attr interpolationmode none
attr source packetDropReasonIsForwardingDisabled(packetDropped)
attr title "packet drop: forwarding disabled, count"
scalar AODVnormal.N[0].ipv4.ip packetDropForwardingDisabled:sum(packetBytes) 0
attr interpolationmode none
attr source packetDropReasonIsForwardingDisabled(packetDropped)
attr title "packet drop: forwarding disabled, sum(packetBytes)"
scalar AODVnormal.N[0].ipv4.ip packetDropNoInterfaceFound:count 0
attr interpolationmode none
attr source packetDropReasonIsNoInterfaceFound(packetDropped)
attr title "packet drop: no interface found, count"
scalar AODVnormal.N[0].ipv4.ip packetDropNoInterfaceFound:sum(packetBytes) 0
attr interpolationmode none
attr source packetDropReasonIsNoInterfaceFound(packetDropped)
attr title "packet drop: no interface found, sum(packetBytes)"
scalar AODVnormal.N[0].ipv4.ip packetDropNoRouteFound:count 0
attr interpolationmode none
attr source packetDropReasonIsNoRouteFound(packetDropped)
attr title "packet drop: no route found, count"
scalar AODVnormal.N[0].ipv4.ip packetDropNoRouteFound:sum(packetBytes) 0
attr interpolationmode none
attr source packetDropReasonIsNoRouteFound(packetDropped)
attr title "packet drop: no route found, sum(packetBytes)"
scalar AODVnormal.N[0].ipv4.ip packetDropUndefined:count 0
attr interpolationmode none
attr source packetDropReasonIsUndefined(packetDropped)
attr title "packet drop: undefined, count"
scalar AODVnormal.N[0].ipv4.ip packetDropUndefined:sum(packetBytes) 0
attr interpolationmode none
attr source packetDropReasonIsUndefined(packetDropped)
attr title "packet drop: undefined, sum(packetBytes)"
scalar AODVnormal.N[0].ipv4.arp arpResolutionFailed:count 0
attr title "ARP failed resolutions, count"
scalar AODVnormal.N[0].ipv4.arp arpResolutionCompleted:count 116
attr title "ARP completed resolutions, count"
scalar AODVnormal.N[0].ipv4.arp arpResolutionInitiated:count 12
attr title "ARP initiated resolutions, count"
scalar AODVnormal.N[0].ipv4.arp arpReplySent:count 13
attr source arpReplySent
attr title "ARP replies sent, count"
scalar AODVnormal.N[0].ipv4.arp arpReplySent:sum(packetBytes) 364
attr source arpReplySent
attr title "ARP replies sent, sum(packetBytes)"
scalar AODVnormal.N[0].ipv4.arp arpRequestSent:count 13
attr source arpRequestSent
attr title "ARP request sent, count"
scalar AODVnormal.N[0].ipv4.arp arpRequestSent:sum(packetBytes) 364
attr source arpRequestSent
attr title "ARP request sent, sum(packetBytes)"
scalar AODVnormal.N[0].udp packetReceived:count 2828
attr interpolationmode none
attr source packetReceived
attr title "packets received, count"
scalar AODVnormal.N[0].udp packetReceived:sum(packetBytes) 90692
attr interpolationmode none
attr source packetReceived
attr title "packets received, sum(packetBytes)"
scalar AODVnormal.N[0].udp packetSent:count 512
attr interpolationmode none
attr source packetSent
attr title "packets sent, count"
scalar AODVnormal.N[0].udp packetSent:sum(packetBytes) 16188
attr interpolationmode none
attr source packetSent
attr title "packets sent, sum(packetBytes)"
scalar AODVnormal.N[0].udp passedUpPk:count 2828
attr interpolationmode none
attr source packetSentToUpper
attr title "packets passed up, count"
scalar AODVnormal.N[0].udp droppedPkWrongPort:count 0
attr interpolationmode none
attr source packetDropReasonIsNoPortFound(packetDropped)
attr title "packets dropped (wrong port), count"
scalar AODVnormal.N[0].udp droppedPkBadChecksum:count 0
attr interpolationmode none
attr source packetDropReasonIsIncorrectlyReceived(packetDropped)
attr title "packets dropped (checksum error), count"
scalar AODVnormal.N[1].lo[0].lo rcvdPkFromHl:count 0
attr interpolationmode none
attr source packetReceivedFromUpper
attr title "packets received from higher layer, count"
scalar AODVnormal.N[1].lo[0].lo rcvdPkFromHl:sum(packetBytes) 0
attr interpolationmode none
attr source packetReceivedFromUpper
attr title "packets received from higher layer, sum(packetBytes)"
scalar AODVnormal.N[1].lo[0].lo passedUpPk:count 0
attr interpolationmode none
attr source packetSentToUpper
attr title "packets passed to higher layer, count"
scalar AODVnormal.N[1].lo[0].lo passedUpPk:sum(packetBytes) 0
attr interpolationmode none
attr source packetSentToUpper
attr title "packets passed to higher layer, sum(packetBytes)"
scalar AODVnormal.N[1].wlan[0].mac.queue packetPopped:count 419
attr interpolationmode none
attr title "packet popped, count"
scalar AODVnormal.N[1].wlan[0].mac.queue packetPopped:sum(packetBytes) 28128
attr interpolationmode none
attr title "packet popped, sum(packetBytes)"
statistic AODVnormal.N[1].wlan[0].mac.queue queueingTime:histogram
field count 419
field mean 6.8549017183771e-07
field stddev 9.1871778000491e-06
field min 0
field max 0.000162530111
field sum 0.000287220382
field sqrsum 3.5477857367633e-08
attr interpolationmode none
attr source queueingTime(packetPopped)
attr title "queueing times, histogram"
attr unit s
bin	-inf	0
bin	-0.5	0
bin	-0.48	0
bin	-0.46	0
bin	-0.44	0
bin	-0.42	0
bin	-0.4	0
bin	-0.38	0
bin	-0.36	0
bin	-0.34	0
bin	-0.32	0
bin	-0.3	0
bin	-0.28	0
bin	-0.26	0
bin	-0.24	0
bin	-0.22	0
bin	-0.2	0
bin	-0.18	0
bin	-0.16	0
bin	-0.14	0
bin	-0.12	0
bin	-0.1	0
bin	-0.08	0
bin	-0.06	0
bin	-0.04	0
bin	-0.02	0
bin	0	419
bin	0.02	0
bin	0.04	0
bin	0.06	0
bin	0.08	0
bin	0.1	0
bin	0.12	0
bin	0.14	0
bin	0.16	0
bin	0.18	0
bin	0.2	0
bin	0.22	0
bin	0.24	0
bin	0.26	0
bin	0.28	0
bin	0.3	0
bin	0.32	0
bin	0.34	0
bin	0.36	0
bin	0.38	0
bin	0.4	0
bin	0.42	0
bin	0.44	0
bin	0.46	0
bin	0.48	0
bin	0.5	0
scalar AODVnormal.N[1].wlan[0].mac.queue queueLength:max 1
attr interpolationmode sample-hold
attr source "count(packetPushed) - count(packetPopped) - count(packetRemoved) - count(packetDropped)"
attr title "queue length, max"
scalar AODVnormal.N[1].wlan[0].mac.queue queueLength:timeavg 1.4361216606203e-06
attr interpolationmode sample-hold
attr source "count(packetPushed) - count(packetPopped) - count(packetRemoved) - count(packetDropped)"
attr title "queue length, timeavg"
scalar AODVnormal.N[1].wlan[0].mac.queue packetPushed:count 419
attr interpolationmode none
attr title "packet pushed, count"
scalar AODVnormal.N[1].wlan[0].mac.queue packetPushed:sum(packetBytes) 28128
attr interpolationmode none
attr title "packet pushed, sum(packetBytes)"
scalar AODVnormal.N[1].wlan[0].mac.queue packetDropQueueOverflow:count 0
attr interpolationmode none
attr source packetDropReasonIsQueueOverflow(packetDropped)
attr title "packet drops: queue overflow, count"
scalar AODVnormal.N[1].wlan[0].mac.queue packetDropQueueOverflow:sum(packetBytes) 0
attr interpolationmode none
attr source packetDropReasonIsQueueOverflow(packetDropped)
attr title "packet drops: queue overflow, sum(packetBytes)"
scalar AODVnormal.N[1].wlan[0].mac.queue packetRemoved:count 0
attr interpolationmode none
attr title "packets removed, count"
scalar AODVnormal.N[1].wlan[0].mac.queue packetRemoved:sum(packetBytes) 0
attr interpolationmode none
attr title "packets removed, sum(packetBytes)"
scalar AODVnormal.N[1].wlan[0].mac rcvdPkFromLl:count 3191
attr interpolationmode none
attr source packetReceivedFromLower
attr title "packets received from lower layer, count"
scalar AODVnormal.N[1].wlan[0].mac rcvdPkFromLl:sum(packetBytes) 437601
attr interpolationmode none
attr source packetReceivedFromLower
attr title "packets received from lower layer, sum(packetBytes)"
scalar AODVnormal.N[1].wlan[0].mac sentDownPk:count 419
attr interpolationmode none
attr source packetSentToLower
attr title "packets sent to lower layer, count"
scalar AODVnormal.N[1].wlan[0].mac sentDownPk:sum(packetBytes) 37765
attr interpolationmode none
attr source packetSentToLower
attr title "packets sent to lower layer, sum(packetBytes)"
scalar AODVnormal.N[1].wlan[0].mac rcvdPkFromHl:count 419
attr interpolationmode none
attr source packetReceivedFromUpper
attr title "packets received from higher layer, count"
scalar AODVnormal.N[1].wlan[0].mac rcvdPkFromHl:sum(packetBytes) 28128
attr interpolationmode none
attr source packetReceivedFromUpper
attr title "packets received from higher layer, sum(packetBytes)"
scalar AODVnormal.N[1].wlan[0].mac passedUpPk:count 2437
attr interpolationmode none
attr source packetSentToUpper
attr title "packets passed to higher layer, count"
scalar AODVnormal.N[1].wlan[0].mac passedUpPk:sum(packetBytes) 130588
attr interpolationmode none
attr source packetSentToUpper
attr title "packets passed to higher layer, sum(packetBytes)"
scalar AODVnormal.N[1].wlan[0].mac packetDropIncorrectlyReceived:count 0
attr interpolationmode none
attr source packetDropReasonIsIncorrectlyReceived(packetDropped)
attr title "packet drop: incorrectly received, count"
scalar AODVnormal.N[1].wlan[0].mac packetDropIncorrectlyReceived:sum(packetBytes) 0
attr interpolationmode none
attr source packetDropReasonIsIncorrectlyReceived(packetDropped)
attr title "packet drop: incorrectly received, sum(packetBytes)"
scalar AODVnormal.N[1].wlan[0].mac packetDropInterfaceDown:count 0
attr interpolationmode none
attr source packetDropReasonIsInterfaceDown(packetDropped)
attr title "packet drop: interface down, count"
scalar AODVnormal.N[1].wlan[0].mac packetDropInterfaceDown:sum(packetBytes) 0
attr interpolationmode none
attr source packetDropReasonIsInterfaceDown(packetDropped)
attr title "packet drop: interface down, sum(packetBytes)"
scalar AODVnormal.N[1].wlan[0].mac packetDropNotAddressedToUs:count 754
attr interpolationmode none
attr source packetDropReasonIsNotAddressedToUs(packetDropped)
attr title "packet drop: not addressed to us, count"
scalar AODVnormal.N[1].wlan[0].mac packetDropNotAddressedToUs:sum(packetBytes) 250962
attr interpolationmode none
attr source packetDropReasonIsNotAddressedToUs(packetDropped)
attr title "packet drop: not addressed to us, sum(packetBytes)"
scalar AODVnormal.N[1].wlan[0].mac linkBroken:count 3
attr interpolationmode none
attr source linkBroken
attr title "link break, count"
scalar AODVnormal.N[1].wlan[0].radio radioMode:count 3
attr interpolationmode sample-hold
attr source radioModeChanged
attr title "Radio mode, count"
scalar AODVnormal.N[1].wlan[0].radio receptionState:count 6994
attr interpolationmode sample-hold
attr source receptionStateChanged
attr title "Radio reception state, count"
scalar AODVnormal.N[1].wlan[0].radio transmissionState:count 839
attr interpolationmode sample-hold
attr source transmissionStateChanged
attr title "Radio transmission state, count"
statistic AODVnormal.N[1].wlan[0].radio minSnir:histogram
field count 0
field mean -nan
field stddev nan
field min nan
field max nan
field sum 0
field sqrsum 0
attr source minimumSnir(packetSentToUpper)
attr title "Min SNIR, histogram"
bin	-inf	0
bin	0	0
bin	1	0
statistic AODVnormal.N[1].wlan[0].radio packetErrorRate:histogram
field count 3191
field mean 0.2926982137261
field stddev 0.45507237647507
field min 0
field max 1
field sum 934
field sqrsum 934
attr source packetErrorRate(packetSentToUpper)
attr title "Packet error rate, histogram"
bin	-inf	0
bin	0	2257
bin	1	934
bin	2	0
statistic AODVnormal.N[1].wlan[0].radio bitErrorRate:histogram
field count 3191
field mean 0.2926982137261
field stddev 0.45507237647507
field min 0
field max 1
field sum 934
field sqrsum 934
attr source bitErrorRate(packetSentToUpper)
attr title "Bit error rate, histogram"
bin	-inf	0
bin	0	2257
bin	1	934
bin	2	0
statistic AODVnormal.N[1].wlan[0].radio symbolErrorRate:histogram
field count 3191
field mean 0.2926982137261
field stddev 0.45507237647507
field min 0
field max 1
field sum 934
field sqrsum 934
attr source symbolErrorRate(packetSentToUpper)
attr title "Symbol error rate, histogram"
bin	-inf	0
bin	0	2257
bin	1	934
bin	2	0
scalar AODVnormal.N[1].ipv4.ip packetDropAddressResolutionFailed:count 0
attr interpolationmode none
attr source packetDropReasonIsAddressResolutionFailed(packetDropped)
attr title "packet drop: address resolution failed, count"
scalar AODVnormal.N[1].ipv4.ip packetDropAddressResolutionFailed:sum(packetBytes) 0
attr interpolationmode none
attr source packetDropReasonIsAddressResolutionFailed(packetDropped)
attr title "packet drop: address resolution failed, sum(packetBytes)"
scalar AODVnormal.N[1].ipv4.ip packetDropHopLimitReached:count 0
attr interpolationmode none
attr source packetDropReasonIsHopLimitReached(packetDropped)
attr title "packet drop: hop limit reached, count"
scalar AODVnormal.N[1].ipv4.ip packetDropHopLimitReached:sum(packetBytes) 0
attr interpolationmode none
attr source packetDropReasonIsHopLimitReached(packetDropped)
attr title "packet drop: hop limit reached, sum(packetBytes)"
scalar AODVnormal.N[1].ipv4.ip packetDropForwardingDisabled:count 0
attr interpolationmode none
attr source packetDropReasonIsForwardingDisabled(packetDropped)
attr title "packet drop: forwarding disabled, count"
scalar AODVnormal.N[1].ipv4.ip packetDropForwardingDisabled:sum(packetBytes) 0
attr interpolationmode none
attr source packetDropReasonIsForwardingDisabled(packetDropped)
attr title "packet drop: forwarding disabled, sum(packetBytes)"
scalar AODVnormal.N[1].ipv4.ip packetDropNoInterfaceFound:count 0
attr interpolationmode none
attr source packetDropReasonIsNoInterfaceFound(packetDropped)
attr title "packet drop: no interface found, count"
scalar AODVnormal.N[1].ipv4.ip packetDropNoInterfaceFound:sum(packetBytes) 0
attr interpolationmode none
attr source packetDropReasonIsNoInterfaceFound(packetDropped)
attr title "packet drop: no interface found, sum(packetBytes)"
scalar AODVnormal.N[1].ipv4.ip packetDropNoRouteFound:count 0
attr interpolationmode none
attr source packetDropReasonIsNoRouteFound(packetDropped)
attr title "packet drop: no route found, count"
scalar AODVnormal.N[1].ipv4.ip packetDropNoRouteFound:sum(packetBytes) 0
attr interpolationmode none
attr source packetDropReasonIsNoRouteFound(packetDropped)
attr title "packet drop: no route found, sum(packetBytes)"
scalar AODVnormal.N[1].ipv4.ip packetDropUndefined:count 0
attr interpolationmode none
attr source packetDropReasonIsUndefined(packetDropped)
attr title "packet drop: undefined, count"
scalar AODVnormal.N[1].ipv4.ip packetDropUndefined:sum(packetBytes) 0
attr interpolationmode none
attr source packetDropReasonIsUndefined(packetDropped)
attr title "packet drop: undefined, sum(packetBytes)"
scalar AODVnormal.N[1].ipv4.arp arpResolutionFailed:count 0
attr title "ARP failed resolutions, count"
scalar AODVnormal.N[1].ipv4.arp arpResolutionCompleted:count 70
attr title "ARP completed resolutions, count"
scalar AODVnormal.N[1].ipv4.arp arpResolutionInitiated:count 9
attr title "ARP initiated resolutions, count"
scalar AODVnormal.N[1].ipv4.arp arpReplySent:count 8
attr source arpReplySent
attr title "ARP replies sent, count"
scalar AODVnormal.N[1].ipv4.arp arpReplySent:sum(packetBytes) 224
attr source arpReplySent
attr title "ARP replies sent, sum(packetBytes)"
scalar AODVnormal.N[1].ipv4.arp arpRequestSent:count 10
attr source arpRequestSent
attr title "ARP request sent, count"
scalar AODVnormal.N[1].ipv4.arp arpRequestSent:sum(packetBytes) 280
attr source arpRequestSent
attr title "ARP request sent, sum(packetBytes)"
scalar AODVnormal.N[1].udp packetReceived:count 2294
attr interpolationmode none
attr source packetReceived
attr title "packets received, count"
scalar AODVnormal.N[1].udp packetReceived:sum(packetBytes) 73516
attr interpolationmode none
attr source packetReceived
attr title "packets received, sum(packetBytes)"
scalar AODVnormal.N[1].udp packetSent:count 386
attr interpolationmode none
attr source packetSent
attr title "packets sent, count"
scalar AODVnormal.N[1].udp packetSent:sum(packetBytes) 12296
attr interpolationmode none
attr source packetSent
attr title "packets sent, sum(packetBytes)"
scalar AODVnormal.N[1].udp passedUpPk:count 2294
attr interpolationmode none
attr source packetSentToUpper
attr title "packets passed up, count"
scalar AODVnormal.N[1].udp droppedPkWrongPort:count 0
attr interpolationmode none
attr source packetDropReasonIsNoPortFound(packetDropped)
attr title "packets dropped (wrong port), count"
scalar AODVnormal.N[1].udp droppedPkBadChecksum:count 0
attr interpolationmode none
attr source packetDropReasonIsIncorrectlyReceived(packetDropped)
attr title "packets dropped (checksum error), count"
scalar AODVnormal.N[2].lo[0].lo rcvdPkFromHl:count 0
attr interpolationmode none
attr source packetReceivedFromUpper
attr title "packets received from higher layer, count"
scalar AODVnormal.N[2].lo[0].lo rcvdPkFromHl:sum(packetBytes) 0
attr interpolationmode none
attr source packetReceivedFromUpper
attr title "packets received from higher layer, sum(packetBytes)"
scalar AODVnormal.N[2].lo[0].lo passedUpPk:count 0
attr interpolationmode none
attr source packetSentToUpper
attr title "packets passed to higher layer, count"
scalar AODVnormal.N[2].lo[0].lo passedUpPk:sum(packetBytes) 0
attr interpolationmode none
attr source packetSentToUpper
attr title "packets passed to higher layer, sum(packetBytes)"
scalar AODVnormal.N[2].wlan[0].mac.queue packetPopped:count 536
attr interpolationmode none
attr title "packet popped, count"
scalar AODVnormal.N[2].wlan[0].mac.queue packetPopped:sum(packetBytes) 49284
attr interpolationmode none
attr title "packet popped, sum(packetBytes)"
statistic AODVnormal.N[2].wlan[0].mac.queue queueingTime:histogram
field count 536
field mean 0.0002302969520709
field stddev 0.0042492008845355
field min 0
field max 0.097601063973
field sum 0.12343916631
field sqrsum 0.0096882315278358
attr interpolationmode none
attr source queueingTime(packetPopped)
attr title "queueing times, histogram"
attr unit s
bin	-inf	0
bin	0	531
bin	0.0018	1
bin	0.0036	1
bin	0.0054	1
bin	0.0072	0
bin	0.009	1
bin	0.0108	0
bin	0.0126	0
bin	0.0144	0
bin	0.0162	0
bin	0.018	0
bin	0.0198	0
bin	0.0216	0
bin	0.0234	0
bin	0.0252	0
bin	0.027	0
bin	0.0288	0
bin	0.0306	0
bin	0.0324	0
bin	0.0342	0
bin	0.036	0
bin	0.0378	0
bin	0.0396	0
bin	0.0414	0
bin	0.0432	0
bin	0.045	0
bin	0.0468	0
bin	0.0486	0
bin	0.0504	0
bin	0.0522	0
bin	0.054	0
bin	0.0558	0
bin	0.0576	0
bin	0.0594	0
bin	0.0612	0
bin	0.063	0
bin	0.0648	0
bin	0.0666	0
bin	0.0684	0
bin	0.0702	0
bin	0.072	0
bin	0.0738	0
bin	0.0756	0
bin	0.0774	0
bin	0.0792	0
bin	0.081	0
bin	0.0828	0
bin	0.0846	0
bin	0.0864	0
bin	0.0882	0
bin	0.09	0
bin	0.0918	0
bin	0.0936	0
bin	0.0954	0
bin	0.0972	1
bin	0.099	0
scalar AODVnormal.N[2].wlan[0].mac.queue queueLength:max 4
attr interpolationmode sample-hold
attr source "count(packetPushed) - count(packetPopped) - count(packetRemoved) - count(packetDropped)"
attr title "queue length, max"
scalar AODVnormal.N[2].wlan[0].mac.queue queueLength:timeavg 0.00061721340953124
attr interpolationmode sample-hold
attr source "count(packetPushed) - count(packetPopped) - count(packetRemoved) - count(packetDropped)"
attr title "queue length, timeavg"
scalar AODVnormal.N[2].wlan[0].mac.queue packetPushed:count 536
attr interpolationmode none
attr title "packet pushed, count"
scalar AODVnormal.N[2].wlan[0].mac.queue packetPushed:sum(packetBytes) 49284
attr interpolationmode none
attr title "packet pushed, sum(packetBytes)"
scalar AODVnormal.N[2].wlan[0].mac.queue packetDropQueueOverflow:count 0
attr interpolationmode none
attr source packetDropReasonIsQueueOverflow(packetDropped)
attr title "packet drops: queue overflow, count"
scalar AODVnormal.N[2].wlan[0].mac.queue packetDropQueueOverflow:sum(packetBytes) 0
attr interpolationmode none
attr source packetDropReasonIsQueueOverflow(packetDropped)
attr title "packet drops: queue overflow, sum(packetBytes)"
scalar AODVnormal.N[2].wlan[0].mac.queue packetRemoved:count 0
attr interpolationmode none
attr title "packets removed, count"
scalar AODVnormal.N[2].wlan[0].mac.queue packetRemoved:sum(packetBytes) 0
attr interpolationmode none
attr title "packets removed, sum(packetBytes)"
scalar AODVnormal.N[2].wlan[0].mac rcvdPkFromLl:count 3282
attr interpolationmode none
attr source packetReceivedFromLower
attr title "packets received from lower layer, count"
scalar AODVnormal.N[2].wlan[0].mac rcvdPkFromLl:sum(packetBytes) 504930
attr interpolationmode none
attr source packetReceivedFromLower
attr title "packets received from lower layer, sum(packetBytes)"
scalar AODVnormal.N[2].wlan[0].mac sentDownPk:count 536
attr interpolationmode none
attr source packetSentToLower
attr title "packets sent to lower layer, count"
scalar AODVnormal.N[2].wlan[0].mac sentDownPk:sum(packetBytes) 61612
attr interpolationmode none
attr source packetSentToLower
attr title "packets sent to lower layer, sum(packetBytes)"
scalar AODVnormal.N[2].wlan[0].mac rcvdPkFromHl:count 536
attr interpolationmode none
attr source packetReceivedFromUpper
attr title "packets received from higher layer, count"
scalar AODVnormal.N[2].wlan[0].mac rcvdPkFromHl:sum(packetBytes) 49284
attr interpolationmode none
attr source packetReceivedFromUpper
attr title "packets received from higher layer, sum(packetBytes)"
scalar AODVnormal.N[2].wlan[0].mac passedUpPk:count 2444
attr interpolationmode none
attr source packetSentToUpper
attr title "packets passed to higher layer, count"
scalar AODVnormal.N[2].wlan[0].mac passedUpPk:sum(packetBytes) 146848
attr interpolationmode none
attr source packetSentToUpper
attr title "packets passed to higher layer, sum(packetBytes)"
scalar AODVnormal.N[2].wlan[0].mac packetDropIncorrectlyReceived:count 0
attr interpolationmode none
attr source packetDropReasonIsIncorrectlyReceived(packetDropped)
attr title "packet drop: incorrectly received, count"
scalar AODVnormal.N[2].wlan[0].mac packetDropIncorrectlyReceived:sum(packetBytes) 0
attr interpolationmode none
attr source packetDropReasonIsIncorrectlyReceived(packetDropped)
attr title "packet drop: incorrectly received, sum(packetBytes)"
scalar AODVnormal.N[2].wlan[0].mac packetDropInterfaceDown:count 0
attr interpolationmode none
attr source packetDropReasonIsInterfaceDown(packetDropped)
attr title "packet drop: interface down, count"
scalar AODVnormal.N[2].wlan[0].mac packetDropInterfaceDown:sum(packetBytes) 0
attr interpolationmode none
attr source packetDropReasonIsInterfaceDown(packetDropped)
attr title "packet drop: interface down, sum(packetBytes)"
scalar AODVnormal.N[2].wlan[0].mac packetDropNotAddressedToUs:count 838
attr interpolationmode none
attr source packetDropReasonIsNotAddressedToUs(packetDropped)
attr title "packet drop: not addressed to us, count"
scalar AODVnormal.N[2].wlan[0].mac packetDropNotAddressedToUs:sum(packetBytes) 301870
attr interpolationmode none
attr source packetDropReasonIsNotAddressedToUs(packetDropped)
attr title "packet drop: not addressed to us, sum(packetBytes)"
scalar AODVnormal.N[2].wlan[0].mac linkBroken:count 9
attr interpolationmode none
attr source linkBroken
attr title "link break, count"
scalar AODVnormal.N[2].wlan[0].radio radioMode:count 3
attr interpolationmode sample-hold
attr source radioModeChanged
attr title "Radio mode, count"
scalar AODVnormal.N[2].wlan[0].radio receptionState:count 7165
attr interpolationmode sample-hold
attr source receptionStateChanged
attr title "Radio reception state, count"
scalar AODVnormal.N[2].wlan[0].radio transmissionState:count 1073
attr interpolationmode sample-hold
attr source transmissionStateChanged
attr title "Radio transmission state, count"
statistic AODVnormal.N[2].wlan[0].radio minSnir:histogram
field count 0
field mean -nan
field stddev nan
field min nan
field max nan
field sum 0
field sqrsum 0
attr source minimumSnir(packetSentToUpper)
attr title "Min SNIR, histogram"
bin	-inf	0
bin	0	0
bin	1	0
statistic AODVnormal.N[2].wlan[0].radio packetErrorRate:histogram
field count 3282
field mean 0.27909811090798
field stddev 0.44862420674872
field min 0
field max 1
field sum 916
field sqrsum 916
attr source packetErrorRate(packetSentToUpper)
attr title "Packet error rate, histogram"
bin	-inf	0
bin	0	2366
bin	1	916
bin	2	0
statistic AODVnormal.N[2].wlan[0].radio bitErrorRate:histogram
field count 3282
field mean 0.27909811090798
field stddev 0.44862420674872
field min 0
field max 1
field sum 916
field sqrsum 916
attr source bitErrorRate(packetSentToUpper)
attr title "Bit error rate, histogram"
bin	-inf	0
bin	0	2366
bin	1	916
bin	2	0
statistic AODVnormal.N[2].wlan[0].radio symbolErrorRate:histogram
field count 3282
field mean 0.27909811090798
field stddev 0.44862420674872
field min 0
field max 1
field sum 916
field sqrsum 916
attr source symbolErrorRate(packetSentToUpper)
attr title "Symbol error rate, histogram"
bin	-inf	0
bin	0	2366
bin	1	916
bin	2	0
scalar AODVnormal.N[2].ipv4.ip packetDropAddressResolutionFailed:count 1
attr interpolationmode none
attr source packetDropReasonIsAddressResolutionFailed(packetDropped)
attr title "packet drop: address resolution failed, count"
scalar AODVnormal.N[2].ipv4.ip packetDropAddressResolutionFailed:sum(packetBytes) 48
attr interpolationmode none
attr source packetDropReasonIsAddressResolutionFailed(packetDropped)
attr title "packet drop: address resolution failed, sum(packetBytes)"
scalar AODVnormal.N[2].ipv4.ip packetDropHopLimitReached:count 0
attr interpolationmode none
attr source packetDropReasonIsHopLimitReached(packetDropped)
attr title "packet drop: hop limit reached, count"
scalar AODVnormal.N[2].ipv4.ip packetDropHopLimitReached:sum(packetBytes) 0
attr interpolationmode none
attr source packetDropReasonIsHopLimitReached(packetDropped)
attr title "packet drop: hop limit reached, sum(packetBytes)"
scalar AODVnormal.N[2].ipv4.ip packetDropForwardingDisabled:count 0
attr interpolationmode none
attr source packetDropReasonIsForwardingDisabled(packetDropped)
attr title "packet drop: forwarding disabled, count"
scalar AODVnormal.N[2].ipv4.ip packetDropForwardingDisabled:sum(packetBytes) 0
attr interpolationmode none
attr source packetDropReasonIsForwardingDisabled(packetDropped)
attr title "packet drop: forwarding disabled, sum(packetBytes)"
scalar AODVnormal.N[2].ipv4.ip packetDropNoInterfaceFound:count 0
attr interpolationmode none
attr source packetDropReasonIsNoInterfaceFound(packetDropped)
attr title "packet drop: no interface found, count"
scalar AODVnormal.N[2].ipv4.ip packetDropNoInterfaceFound:sum(packetBytes) 0
attr interpolationmode none
attr source packetDropReasonIsNoInterfaceFound(packetDropped)
attr title "packet drop: no interface found, sum(packetBytes)"
scalar AODVnormal.N[2].ipv4.ip packetDropNoRouteFound:count 0
attr interpolationmode none
attr source packetDropReasonIsNoRouteFound(packetDropped)
attr title "packet drop: no route found, count"
scalar AODVnormal.N[2].ipv4.ip packetDropNoRouteFound:sum(packetBytes) 0
attr interpolationmode none
attr source packetDropReasonIsNoRouteFound(packetDropped)
attr title "packet drop: no route found, sum(packetBytes)"
scalar AODVnormal.N[2].ipv4.ip packetDropUndefined:count 0
attr interpolationmode none
attr source packetDropReasonIsUndefined(packetDropped)
attr title "packet drop: undefined, count"
scalar AODVnormal.N[2].ipv4.ip packetDropUndefined:sum(packetBytes) 0
attr interpolationmode none
attr source packetDropReasonIsUndefined(packetDropped)
attr title "packet drop: undefined, sum(packetBytes)"
scalar AODVnormal.N[2].ipv4.arp arpResolutionFailed:count 1
attr title "ARP failed resolutions, count"
scalar AODVnormal.N[2].ipv4.arp arpResolutionCompleted:count 67
attr title "ARP completed resolutions, count"
scalar AODVnormal.N[2].ipv4.arp arpResolutionInitiated:count 17
attr title "ARP initiated resolutions, count"
scalar AODVnormal.N[2].ipv4.arp arpReplySent:count 9
attr source arpReplySent
attr title "ARP replies sent, count"
scalar AODVnormal.N[2].ipv4.arp arpReplySent:sum(packetBytes) 252
attr source arpReplySent
attr title "ARP replies sent, sum(packetBytes)"
scalar AODVnormal.N[2].ipv4.arp arpRequestSent:count 26
attr source arpRequestSent
attr title "ARP request sent, count"
scalar AODVnormal.N[2].ipv4.arp arpRequestSent:sum(packetBytes) 728
attr source arpRequestSent
attr title "ARP request sent, sum(packetBytes)"
scalar AODVnormal.N[2].udp packetReceived:count 2284
attr interpolationmode none
attr source packetReceived
attr title "packets received, count"
scalar AODVnormal.N[2].udp packetReceived:sum(packetBytes) 73116
attr interpolationmode none
attr source packetReceived
attr title "packets received, sum(packetBytes)"
scalar AODVnormal.N[2].udp packetSent:count 455
attr interpolationmode none
attr source packetSent
attr title "packets sent, count"
scalar AODVnormal.N[2].udp packetSent:sum(packetBytes) 14364
attr interpolationmode none
attr source packetSent
attr title "packets sent, sum(packetBytes)"
scalar AODVnormal.N[2].udp passedUpPk:count 2284
attr interpolationmode none
attr source packetSentToUpper
attr title "packets passed up, count"
scalar AODVnormal.N[2].udp droppedPkWrongPort:count 0
attr interpolationmode none
attr source packetDropReasonIsNoPortFound(packetDropped)
attr title "packets dropped (wrong port), count"
scalar AODVnormal.N[2].udp droppedPkBadChecksum:count 0
attr interpolationmode none
attr source packetDropReasonIsIncorrectlyReceived(packetDropped)
attr title "packets dropped (checksum error), count"
scalar AODVnormal.N[3].lo[0].lo rcvdPkFromHl:count 0
attr interpolationmode none
attr source packetReceivedFromUpper
attr title "packets received from higher layer, count"
scalar AODVnormal.N[3].lo[0].lo rcvdPkFromHl:sum(packetBytes) 0
attr interpolationmode none
attr source packetReceivedFromUpper
attr title "packets received from higher layer, sum(packetBytes)"
scalar AODVnormal.N[3].lo[0].lo passedUpPk:count 0
attr interpolationmode none
attr source packetSentToUpper
attr title "packets passed to higher layer, count"
scalar AODVnormal.N[3].lo[0].lo passedUpPk:sum(packetBytes) 0
attr interpolationmode none
attr source packetSentToUpper
attr title "packets passed to higher layer, sum(packetBytes)"
scalar AODVnormal.N[3].wlan[0].mac.queue packetPopped:count 448
attr interpolationmode none
attr title "packet popped, count"
scalar AODVnormal.N[3].wlan[0].mac.queue packetPopped:sum(packetBytes) 31952
attr interpolationmode none
attr title "packet popped, sum(packetBytes)"
statistic AODVnormal.N[3].wlan[0].mac.queue queueingTime:histogram
field count 448
field mean 0.0008746016513058
field stddev 0.0092125576705371
field min 0
field max 0.1
field sum 0.391821539785
field sqrsum 0.038280122584051
attr interpolationmode none
attr source queueingTime(packetPopped)
attr title "queueing times, histogram"
attr unit s
bin	-inf	0
bin	0	444
bin	0.002	0
bin	0.004	0
bin	0.006	0
bin	0.008	0
bin	0.01	0
bin	0.012	0
bin	0.014	0
bin	0.016	0
bin	0.018	0
bin	0.02	0
bin	0.022	0
bin	0.024	0
bin	0.026	0
bin	0.028	0
bin	0.03	0
bin	0.032	0
bin	0.034	0
bin	0.036	0
bin	0.038	0
bin	0.04	0
bin	0.042	0
bin	0.044	0
bin	0.046	0
bin	0.048	0
bin	0.05	0
bin	0.052	0
bin	0.054	0
bin	0.056	0
bin	0.058	0
bin	0.06	0
bin	0.062	0
bin	0.064	0
bin	0.066	0
bin	0.068	0
bin	0.07	0
bin	0.072	0
bin	0.074	0
bin	0.076	0
bin	0.078	0
bin	0.08	0
bin	0.082	0
bin	0.084	0
bin	0.086	0
bin	0.088	0
bin	0.09	0
bin	0.092	0
bin	0.094	1
bin	0.096	1
bin	0.098	2
bin	0.1	0
bin	0.102	0
bin	0.104	0
bin	0.106	0
bin	0.108	0
bin	0.11	0
bin	0.112	0
bin	0.114	0
bin	0.116	0
bin	0.118	0
bin	0.12	0
bin	0.122	0
bin	0.124	0
bin	0.126	0
scalar AODVnormal.N[3].wlan[0].mac.queue queueLength:max 1
attr interpolationmode sample-hold
attr source "count(packetPushed) - count(packetPopped) - count(packetRemoved) - count(packetDropped)"
attr title "queue length, max"
scalar AODVnormal.N[3].wlan[0].mac.queue queueLength:timeavg 0.0019591691378639
attr interpolationmode sample-hold
attr source "count(packetPushed) - count(packetPopped) - count(packetRemoved) - count(packetDropped)"
attr title "queue length, timeavg"
scalar AODVnormal.N[3].wlan[0].mac.queue packetPushed:count 448
attr interpolationmode none
attr title "packet pushed, count"
scalar AODVnormal.N[3].wlan[0].mac.queue packetPushed:sum(packetBytes) 31952
attr interpolationmode none
attr title "packet pushed, sum(packetBytes)"
scalar AODVnormal.N[3].wlan[0].mac.queue packetDropQueueOverflow:count 0
attr interpolationmode none
attr source packetDropReasonIsQueueOverflow(packetDropped)
attr title "packet drops: queue overflow, count"
scalar AODVnormal.N[3].wlan[0].mac.queue packetDropQueueOverflow:sum(packetBytes) 0
attr interpolationmode none
attr source packetDropReasonIsQueueOverflow(packetDropped)
attr title "packet drops: queue overflow, sum(packetBytes)"
scalar AODVnormal.N[3].wlan[0].mac.queue packetRemoved:count 0
attr interpolationmode none
attr title "packets removed, count"
scalar AODVnormal.N[3].wlan[0].mac.queue packetRemoved:sum(packetBytes) 0
attr interpolationmode none
attr title "packets removed, sum(packetBytes)"
scalar AODVnormal.N[3].wlan[0].mac rcvdPkFromLl:count 3297
attr interpolationmode none
attr source packetReceivedFromLower
attr title "packets received from lower layer, count"
scalar AODVnormal.N[3].wlan[0].mac rcvdPkFromLl:sum(packetBytes) 460151
attr interpolationmode none
attr source packetReceivedFromLower
attr title "packets received from lower layer, sum(packetBytes)"
scalar AODVnormal.N[3].wlan[0].mac sentDownPk:count 448
attr interpolationmode none
attr source packetSentToLower
attr title "packets sent to lower layer, count"
scalar AODVnormal.N[3].wlan[0].mac sentDownPk:sum(packetBytes) 42256
attr interpolationmode none
attr source packetSentToLower
attr title "packets sent to lower layer, sum(packetBytes)"
scalar AODVnormal.N[3].wlan[0].mac rcvdPkFromHl:count 448
attr interpolationmode none
attr source packetReceivedFromUpper
attr title "packets received from higher layer, count"
scalar AODVnormal.N[3].wlan[0].mac rcvdPkFromHl:sum(packetBytes) 31952
attr interpolationmode none
attr source packetReceivedFromUpper
attr title "packets received from higher layer, sum(packetBytes)"
scalar AODVnormal.N[3].wlan[0].mac passedUpPk:count 2501
attr interpolationmode none
attr source packetSentToUpper
attr title "packets passed to higher layer, count"
scalar AODVnormal.N[3].wlan[0].mac passedUpPk:sum(packetBytes) 136332
attr interpolationmode none
attr source packetSentToUpper
attr title "packets passed to higher layer, sum(packetBytes)"
scalar AODVnormal.N[3].wlan[0].mac packetDropIncorrectlyReceived:count 0
attr interpolationmode none
attr source packetDropReasonIsIncorrectlyReceived(packetDropped)
attr title "packet drop: incorrectly received, count"
scalar AODVnormal.N[3].wlan[0].mac packetDropIncorrectlyReceived:sum(packetBytes) 0
attr interpolationmode none
attr source packetDropReasonIsIncorrectlyReceived(packetDropped)
attr title "packet drop: incorrectly received, sum(packetBytes)"
scalar AODVnormal.N[3].wlan[0].mac packetDropInterfaceDown:count 0
attr interpolationmode none
attr source packetDropReasonIsInterfaceDown(packetDropped)
attr title "packet drop: interface down, count"
scalar AODVnormal.N[3].wlan[0].mac packetDropInterfaceDown:sum(packetBytes) 0
attr interpolationmode none
attr source packetDropReasonIsInterfaceDown(packetDropped)
attr title "packet drop: interface down, sum(packetBytes)"
scalar AODVnormal.N[3].wlan[0].mac packetDropNotAddressedToUs:count 796
attr interpolationmode none
attr source packetDropReasonIsNotAddressedToUs(packetDropped)
attr title "packet drop: not addressed to us, count"
scalar AODVnormal.N[3].wlan[0].mac packetDropNotAddressedToUs:sum(packetBytes) 266296
attr interpolationmode none
attr source packetDropReasonIsNotAddressedToUs(packetDropped)
attr title "packet drop: not addressed to us, sum(packetBytes)"
scalar AODVnormal.N[3].wlan[0].mac linkBroken:count 7
attr interpolationmode none
attr source linkBroken
attr title "link break, count"
scalar AODVnormal.N[3].wlan[0].radio radioMode:count 3
attr interpolationmode sample-hold
attr source radioModeChanged
attr title "Radio mode, count"
scalar AODVnormal.N[3].wlan[0].radio receptionState:count 7236
attr interpolationmode sample-hold
attr source receptionStateChanged
attr title "Radio reception state, count"
scalar AODVnormal.N[3].wlan[0].radio transmissionState:count 897
attr interpolationmode sample-hold
attr source transmissionStateChanged
attr title "Radio transmission state, count"
statistic AODVnormal.N[3].wlan[0].radio minSnir:histogram
field count 0
field mean -nan
field stddev nan
field min nan
field max nan
field sum 0
field sqrsum 0
attr source minimumSnir(packetSentToUpper)
attr title "Min SNIR, histogram"
bin	-inf	0
bin	0	0
bin	1	0
statistic AODVnormal.N[3].wlan[0].radio packetErrorRate:histogram
field count 3297
field mean 0.29875644525326
field stddev 0.45778225596795
field min 0
field max 1
field sum 985
field sqrsum 985
attr source packetErrorRate(packetSentToUpper)
attr title "Packet error rate, histogram"
bin	-inf	0
bin	0	2312
bin	1	985
bin	2	0
statistic AODVnormal.N[3].wlan[0].radio bitErrorRate:histogram
field count 3297
field mean 0.29875644525326
field stddev 0.45778225596795
field min 0
field max 1
field sum 985
field sqrsum 985
attr source bitErrorRate(packetSentToUpper)
attr title "Bit error rate, histogram"
bin	-inf	0
bin	0	2312
bin	1	985
bin	2	0
statistic AODVnormal.N[3].wlan[0].radio symbolErrorRate:histogram
field count 3297
field mean 0.29875644525326
field stddev 0.45778225596795
field min 0
field max 1
field sum 985
field sqrsum 985
attr source symbolErrorRate(packetSentToUpper)
attr title "Symbol error rate, histogram"
bin	-inf	0
bin	0	2312
bin	1	985
bin	2	0
scalar AODVnormal.N[3].ipv4.ip packetDropAddressResolutionFailed:count 1
attr interpolationmode none
attr source packetDropReasonIsAddressResolutionFailed(packetDropped)
attr title "packet drop: address resolution failed, count"
scalar AODVnormal.N[3].ipv4.ip packetDropAddressResolutionFailed:sum(packetBytes) 48
attr interpolationmode none
attr source packetDropReasonIsAddressResolutionFailed(packetDropped)
attr title "packet drop: address resolution failed, sum(packetBytes)"
scalar AODVnormal.N[3].ipv4.ip packetDropHopLimitReached:count 0
attr interpolationmode none
attr source packetDropReasonIsHopLimitReached(packetDropped)
attr title "packet drop: hop limit reached, count"
scalar AODVnormal.N[3].ipv4.ip packetDropHopLimitReached:sum(packetBytes) 0
attr interpolationmode none
attr source packetDropReasonIsHopLimitReached(packetDropped)
attr title "packet drop: hop limit reached, sum(packetBytes)"
scalar AODVnormal.N[3].ipv4.ip packetDropForwardingDisabled:count 0
attr interpolationmode none
attr source packetDropReasonIsForwardingDisabled(packetDropped)
attr title "packet drop: forwarding disabled, count"
scalar AODVnormal.N[3].ipv4.ip packetDropForwardingDisabled:sum(packetBytes) 0
attr interpolationmode none
attr source packetDropReasonIsForwardingDisabled(packetDropped)
attr title "packet drop: forwarding disabled, sum(packetBytes)"
scalar AODVnormal.N[3].ipv4.ip packetDropNoInterfaceFound:count 0
attr interpolationmode none
attr source packetDropReasonIsNoInterfaceFound(packetDropped)
attr title "packet drop: no interface found, count"
scalar AODVnormal.N[3].ipv4.ip packetDropNoInterfaceFound:sum(packetBytes) 0
attr interpolationmode none
attr source packetDropReasonIsNoInterfaceFound(packetDropped)
attr title "packet drop: no interface found, sum(packetBytes)"
scalar AODVnormal.N[3].ipv4.ip packetDropNoRouteFound:count 0
attr interpolationmode none
attr source packetDropReasonIsNoRouteFound(packetDropped)
attr title "packet drop: no route found, count"
scalar AODVnormal.N[3].ipv4.ip packetDropNoRouteFound:sum(packetBytes) 0
attr interpolationmode none
attr source packetDropReasonIsNoRouteFound(packetDropped)
attr title "packet drop: no route found, sum(packetBytes)"
scalar AODVnormal.N[3].ipv4.ip packetDropUndefined:count 0
attr interpolationmode none
attr source packetDropReasonIsUndefined(packetDropped)
attr title "packet drop: undefined, count"
scalar AODVnormal.N[3].ipv4.ip packetDropUndefined:sum(packetBytes) 0
attr interpolationmode none
attr source packetDropReasonIsUndefined(packetDropped)
attr title "packet drop: undefined, sum(packetBytes)"
scalar AODVnormal.N[3].ipv4.arp arpResolutionFailed:count 1
attr title "ARP failed resolutions, count"
scalar AODVnormal.N[3].ipv4.arp arpResolutionCompleted:count 74
attr title "ARP completed resolutions, count"
scalar AODVnormal.N[3].ipv4.arp arpResolutionInitiated:count 10
attr title "ARP initiated resolutions, count"
scalar AODVnormal.N[3].ipv4.arp arpReplySent:count 9
attr source arpReplySent
attr title "ARP replies sent, count"
scalar AODVnormal.N[3].ipv4.arp arpReplySent:sum(packetBytes) 252
attr source arpReplySent
attr title "ARP replies sent, sum(packetBytes)"
scalar AODVnormal.N[3].ipv4.arp arpRequestSent:count 14
attr source arpRequestSent
attr title "ARP request sent, count"
scalar AODVnormal.N[3].ipv4.arp arpRequestSent:sum(packetBytes) 392
attr source arpRequestSent
attr title "ARP request sent, sum(packetBytes)"
scalar AODVnormal.N[3].udp packetReceived:count 2351
attr interpolationmode none
attr source packetReceived
attr title "packets received, count"
scalar AODVnormal.N[3].udp packetReceived:sum(packetBytes) 75344
attr interpolationmode none
attr source packetReceived
attr title "packets received, sum(packetBytes)"
scalar AODVnormal.N[3].udp packetSent:count 405
attr interpolationmode none
attr source packetSent
attr title "packets sent, count"
scalar AODVnormal.N[3].udp packetSent:sum(packetBytes) 12900
attr interpolationmode none
attr source packetSent
attr title "packets sent, sum(packetBytes)"
scalar AODVnormal.N[3].udp passedUpPk:count 2351
attr interpolationmode none
attr source packetSentToUpper
attr title "packets passed up, count"
scalar AODVnormal.N[3].udp droppedPkWrongPort:count 0
attr interpolationmode none
attr source packetDropReasonIsNoPortFound(packetDropped)
attr title "packets dropped (wrong port), count"
scalar AODVnormal.N[3].udp droppedPkBadChecksum:count 0
attr interpolationmode none
attr source packetDropReasonIsIncorrectlyReceived(packetDropped)
attr title "packets dropped (checksum error), count"
scalar AODVnormal.N[4].lo[0].lo rcvdPkFromHl:count 0
attr interpolationmode none
attr source packetReceivedFromUpper
attr title "packets received from higher layer, count"
scalar AODVnormal.N[4].lo[0].lo rcvdPkFromHl:sum(packetBytes) 0
attr interpolationmode none
attr source packetReceivedFromUpper
attr title "packets received from higher layer, sum(packetBytes)"
scalar AODVnormal.N[4].lo[0].lo passedUpPk:count 0
attr interpolationmode none
attr source packetSentToUpper
attr title "packets passed to higher layer, count"
scalar AODVnormal.N[4].lo[0].lo passedUpPk:sum(packetBytes) 0
attr interpolationmode none
attr source packetSentToUpper
attr title "packets passed to higher layer, sum(packetBytes)"
scalar AODVnormal.N[4].wlan[0].mac.queue packetPopped:count 436
attr interpolationmode none
attr title "packet popped, count"
scalar AODVnormal.N[4].wlan[0].mac.queue packetPopped:sum(packetBytes) 51368
attr interpolationmode none
attr title "packet popped, sum(packetBytes)"
statistic AODVnormal.N[4].wlan[0].mac.queue queueingTime:histogram
field count 436
field mean 0.00097117590986468
field stddev 0.0095368174347691
field min 0
field max 0.103672516476
field sum 0.423432696701
field sqrsum 0.039974863385575
attr interpolationmode none
attr source queueingTime(packetPopped)
attr title "queueing times, histogram"
attr unit s
bin	-inf	0
bin	0	431
bin	0.002	0
bin	0.004	0
bin	0.006	0
bin	0.008	0
bin	0.01	0
bin	0.012	0
bin	0.014	0
bin	0.016	0
bin	0.018	0
bin	0.02	0
bin	0.022	0
bin	0.024	1
bin	0.026	0
bin	0.028	0
bin	0.03	0
bin	0.032	0
bin	0.034	0
bin	0.036	0
bin	0.038	0
bin	0.04	0
bin	0.042	0
bin	0.044	0
bin	0.046	0
bin	0.048	0
bin	0.05	0
bin	0.052	0
bin	0.054	0
bin	0.056	0
bin	0.058	0
bin	0.06	0
bin	0.062	0
bin	0.064	0
bin	0.066	0
bin	0.068	0
bin	0.07	0
bin	0.072	0
bin	0.074	0
bin	0.076	0
bin	0.078	0
bin	0.08	0
bin	0.082	0
bin	0.084	0
bin	0.086	0
bin	0.088	0
bin	0.09	0
bin	0.092	0
bin	0.094	0
bin	0.096	3
bin	0.098	0
bin	0.1	0
bin	0.102	1
bin	0.104	0
scalar AODVnormal.N[4].wlan[0].mac.queue queueLength:max 3
attr interpolationmode sample-hold
attr source "count(packetPushed) - count(packetPopped) - count(packetRemoved) - count(packetDropped)"
attr title "queue length, max"
scalar AODVnormal.N[4].wlan[0].mac.queue queueLength:timeavg 0.0021172255850561
attr interpolationmode sample-hold
attr source "count(packetPushed) - count(packetPopped) - count(packetRemoved) - count(packetDropped)"
attr title "queue length, timeavg"
scalar AODVnormal.N[4].wlan[0].mac.queue packetPushed:count 436
attr interpolationmode none
attr title "packet pushed, count"
scalar AODVnormal.N[4].wlan[0].mac.queue packetPushed:sum(packetBytes) 51368
attr interpolationmode none
attr title "packet pushed, sum(packetBytes)"
scalar AODVnormal.N[4].wlan[0].mac.queue packetDropQueueOverflow:count 0
attr interpolationmode none
attr source packetDropReasonIsQueueOverflow(packetDropped)
attr title "packet drops: queue overflow, count"
scalar AODVnormal.N[4].wlan[0].mac.queue packetDropQueueOverflow:sum(packetBytes) 0
attr interpolationmode none
attr source packetDropReasonIsQueueOverflow(packetDropped)
attr title "packet drops: queue overflow, sum(packetBytes)"
scalar AODVnormal.N[4].wlan[0].mac.queue packetRemoved:count 0
attr interpolationmode none
attr title "packets removed, count"
scalar AODVnormal.N[4].wlan[0].mac.queue packetRemoved:sum(packetBytes) 0
attr interpolationmode none
attr title "packets removed, sum(packetBytes)"
scalar AODVnormal.N[4].wlan[0].mac rcvdPkFromLl:count 1921
attr interpolationmode none
attr source packetReceivedFromLower
attr title "packets received from lower layer, count"
scalar AODVnormal.N[4].wlan[0].mac rcvdPkFromLl:sum(packetBytes) 368775
attr interpolationmode none
attr source packetReceivedFromLower
attr title "packets received from lower layer, sum(packetBytes)"
scalar AODVnormal.N[4].wlan[0].mac sentDownPk:count 436
attr interpolationmode none
attr source packetSentToLower
attr title "packets sent to lower layer, count"
scalar AODVnormal.N[4].wlan[0].mac sentDownPk:sum(packetBytes) 61396
attr interpolationmode none
attr source packetSentToLower
attr title "packets sent to lower layer, sum(packetBytes)"
scalar AODVnormal.N[4].wlan[0].mac rcvdPkFromHl:count 436
attr interpolationmode none
attr source packetReceivedFromUpper
attr title "packets received from higher layer, count"
scalar AODVnormal.N[4].wlan[0].mac rcvdPkFromHl:sum(packetBytes) 51368
attr interpolationmode none
attr source packetReceivedFromUpper
attr title "packets received from higher layer, sum(packetBytes)"
scalar AODVnormal.N[4].wlan[0].mac passedUpPk:count 1307
attr interpolationmode none
attr source packetSentToUpper
attr title "packets passed to higher layer, count"
scalar AODVnormal.N[4].wlan[0].mac passedUpPk:sum(packetBytes) 96148
attr interpolationmode none
attr source packetSentToUpper
attr title "packets passed to higher layer, sum(packetBytes)"
scalar AODVnormal.N[4].wlan[0].mac packetDropIncorrectlyReceived:count 0
attr interpolationmode none
attr source packetDropReasonIsIncorrectlyReceived(packetDropped)
attr title "packet drop: incorrectly received, count"
scalar AODVnormal.N[4].wlan[0].mac packetDropIncorrectlyReceived:sum(packetBytes) 0
attr interpolationmode none
attr source packetDropReasonIsIncorrectlyReceived(packetDropped)
attr title "packet drop: incorrectly received, sum(packetBytes)"
scalar AODVnormal.N[4].wlan[0].mac packetDropInterfaceDown:count 0
attr interpolationmode none
attr source packetDropReasonIsInterfaceDown(packetDropped)
attr title "packet drop: interface down, count"
scalar AODVnormal.N[4].wlan[0].mac packetDropInterfaceDown:sum(packetBytes) 0
attr interpolationmode none
attr source packetDropReasonIsInterfaceDown(packetDropped)
attr title "packet drop: interface down, sum(packetBytes)"
scalar AODVnormal.N[4].wlan[0].mac packetDropNotAddressedToUs:count 614
attr interpolationmode none
attr source packetDropReasonIsNotAddressedToUs(packetDropped)
attr title "packet drop: not addressed to us, count"
scalar AODVnormal.N[4].wlan[0].mac packetDropNotAddressedToUs:sum(packetBytes) 242566
attr interpolationmode none
attr source packetDropReasonIsNotAddressedToUs(packetDropped)
attr title "packet drop: not addressed to us, sum(packetBytes)"
scalar AODVnormal.N[4].wlan[0].mac linkBroken:count 7
attr interpolationmode none
attr source linkBroken
attr title "link break, count"
scalar AODVnormal.N[4].wlan[0].radio radioMode:count 3
attr interpolationmode sample-hold
attr source radioModeChanged
attr title "Radio mode, count"
scalar AODVnormal.N[4].wlan[0].radio receptionState:count 4036
attr interpolationmode sample-hold
attr source receptionStateChanged
attr title "Radio reception state, count"
scalar AODVnormal.N[4].wlan[0].radio transmissionState:count 873
attr interpolationmode sample-hold
attr source transmissionStateChanged
attr title "Radio transmission state, count"
statistic AODVnormal.N[4].wlan[0].radio minSnir:histogram
field count 0
field mean -nan
field stddev nan
field min nan
field max nan
field sum 0
field sqrsum 0
attr source minimumSnir(packetSentToUpper)
attr title "Min SNIR, histogram"
bin	-inf	0
bin	0	0
bin	1	0
statistic AODVnormal.N[4].wlan[0].radio packetErrorRate:histogram
field count 1921
field mean 0.13274336283186
field stddev 0.33938550664973
field min 0
field max 1
field sum 255
field sqrsum 255
attr source packetErrorRate(packetSentToUpper)
attr title "Packet error rate, histogram"
bin	-inf	0
bin	0	1666
bin	1	255
bin	2	0
statistic AODVnormal.N[4].wlan[0].radio bitErrorRate:histogram
field count 1921
field mean 0.13274336283186
field stddev 0.33938550664973
field min 0
field max 1
field sum 255
field sqrsum 255
attr source bitErrorRate(packetSentToUpper)
attr title "Bit error rate, histogram"
bin	-inf	0
bin	0	1666
bin	1	255
bin	2	0
statistic AODVnormal.N[4].wlan[0].radio symbolErrorRate:histogram
field count 1921
field mean 0.13274336283186
field stddev 0.33938550664973
field min 0
field max 1
field sum 255
field sqrsum 255
attr source symbolErrorRate(packetSentToUpper)
attr title "Symbol error rate, histogram"
bin	-inf	0
bin	0	1666
bin	1	255
bin	2	0
scalar AODVnormal.N[4].ipv4.ip packetDropAddressResolutionFailed:count 0
attr interpolationmode none
attr source packetDropReasonIsAddressResolutionFailed(packetDropped)
attr title "packet drop: address resolution failed, count"
scalar AODVnormal.N[4].ipv4.ip packetDropAddressResolutionFailed:sum(packetBytes) 0
attr interpolationmode none
attr source packetDropReasonIsAddressResolutionFailed(packetDropped)
attr title "packet drop: address resolution failed, sum(packetBytes)"
scalar AODVnormal.N[4].ipv4.ip packetDropHopLimitReached:count 0
attr interpolationmode none
attr source packetDropReasonIsHopLimitReached(packetDropped)
attr title "packet drop: hop limit reached, count"
scalar AODVnormal.N[4].ipv4.ip packetDropHopLimitReached:sum(packetBytes) 0
attr interpolationmode none
attr source packetDropReasonIsHopLimitReached(packetDropped)
attr title "packet drop: hop limit reached, sum(packetBytes)"
scalar AODVnormal.N[4].ipv4.ip packetDropForwardingDisabled:count 0
attr interpolationmode none
attr source packetDropReasonIsForwardingDisabled(packetDropped)
attr title "packet drop: forwarding disabled, count"
scalar AODVnormal.N[4].ipv4.ip packetDropForwardingDisabled:sum(packetBytes) 0
attr interpolationmode none
attr source packetDropReasonIsForwardingDisabled(packetDropped)
attr title "packet drop: forwarding disabled, sum(packetBytes)"
scalar AODVnormal.N[4].ipv4.ip packetDropNoInterfaceFound:count 0
attr interpolationmode none
attr source packetDropReasonIsNoInterfaceFound(packetDropped)
attr title "packet drop: no interface found, count"
scalar AODVnormal.N[4].ipv4.ip packetDropNoInterfaceFound:sum(packetBytes) 0
attr interpolationmode none
attr source packetDropReasonIsNoInterfaceFound(packetDropped)
attr title "packet drop: no interface found, sum(packetBytes)"
scalar AODVnormal.N[4].ipv4.ip packetDropNoRouteFound:count 0
attr interpolationmode none
attr source packetDropReasonIsNoRouteFound(packetDropped)
attr title "packet drop: no route found, count"
scalar AODVnormal.N[4].ipv4.ip packetDropNoRouteFound:sum(packetBytes) 0
attr interpolationmode none
attr source packetDropReasonIsNoRouteFound(packetDropped)
attr title "packet drop: no route found, sum(packetBytes)"
scalar AODVnormal.N[4].ipv4.ip packetDropUndefined:count 0
attr interpolationmode none
attr source packetDropReasonIsUndefined(packetDropped)
attr title "packet drop: undefined, count"
scalar AODVnormal.N[4].ipv4.ip packetDropUndefined:sum(packetBytes) 0
attr interpolationmode none
attr source packetDropReasonIsUndefined(packetDropped)
attr title "packet drop: undefined, sum(packetBytes)"
scalar AODVnormal.N[4].ipv4.arp arpResolutionFailed:count 0
attr title "ARP failed resolutions, count"
scalar AODVnormal.N[4].ipv4.arp arpResolutionCompleted:count 44
attr title "ARP completed resolutions, count"
scalar AODVnormal.N[4].ipv4.arp arpResolutionInitiated:count 7
attr title "ARP initiated resolutions, count"
scalar AODVnormal.N[4].ipv4.arp arpReplySent:count 7
attr source arpReplySent
attr title "ARP replies sent, count"
scalar AODVnormal.N[4].ipv4.arp arpReplySent:sum(packetBytes) 196
attr source arpReplySent
attr title "ARP replies sent, sum(packetBytes)"
scalar AODVnormal.N[4].ipv4.arp arpRequestSent:count 8
attr source arpRequestSent
attr title "ARP request sent, count"
scalar AODVnormal.N[4].ipv4.arp arpRequestSent:sum(packetBytes) 224
attr source arpRequestSent
attr title "ARP request sent, sum(packetBytes)"
scalar AODVnormal.N[4].udp packetReceived:count 1197
attr interpolationmode none
attr source packetReceived
attr title "packets received, count"
scalar AODVnormal.N[4].udp packetReceived:sum(packetBytes) 38368
attr interpolationmode none
attr source packetReceived
attr title "packets received, sum(packetBytes)"
scalar AODVnormal.N[4].udp packetSent:count 359
attr interpolationmode none
attr source packetSent
attr title "packets sent, count"
scalar AODVnormal.N[4].udp packetSent:sum(packetBytes) 11272
attr interpolationmode none
attr source packetSent
attr title "packets sent, sum(packetBytes)"
scalar AODVnormal.N[4].udp passedUpPk:count 1197
attr interpolationmode none
attr source packetSentToUpper
attr title "packets passed up, count"
scalar AODVnormal.N[4].udp droppedPkWrongPort:count 0
attr interpolationmode none
attr source packetDropReasonIsNoPortFound(packetDropped)
attr title "packets dropped (wrong port), count"
scalar AODVnormal.N[4].udp droppedPkBadChecksum:count 0
attr interpolationmode none
attr source packetDropReasonIsIncorrectlyReceived(packetDropped)
attr title "packets dropped (checksum error), count"
scalar AODVnormal.N[5].lo[0].lo rcvdPkFromHl:count 0
attr interpolationmode none
attr source packetReceivedFromUpper
attr title "packets received from higher layer, count"
scalar AODVnormal.N[5].lo[0].lo rcvdPkFromHl:sum(packetBytes) 0
attr interpolationmode none
attr source packetReceivedFromUpper
attr title "packets received from higher layer, sum(packetBytes)"
scalar AODVnormal.N[5].lo[0].lo passedUpPk:count 0
attr interpolationmode none
attr source packetSentToUpper
attr title "packets passed to higher layer, count"
scalar AODVnormal.N[5].lo[0].lo passedUpPk:sum(packetBytes) 0
attr interpolationmode none
attr source packetSentToUpper
attr title "packets passed to higher layer, sum(packetBytes)"
scalar AODVnormal.N[5].wlan[0].mac.queue packetPopped:count 476
attr interpolationmode none
attr title "packet popped, count"
scalar AODVnormal.N[5].wlan[0].mac.queue packetPopped:sum(packetBytes) 41028
attr interpolationmode none
attr title "packet popped, sum(packetBytes)"
statistic AODVnormal.N[5].wlan[0].mac.queue queueingTime:histogram
field count 476
field mean 0.001042219797021
field stddev 0.010058177679807
field min 0
field max 0.1
field sum 0.496096623382
field sqrsum 0.048571337385443
attr interpolationmode none
attr source queueingTime(packetPopped)
attr title "queueing times, histogram"
attr unit s
bin	-inf	0
bin	0	471
bin	0.002	0
bin	0.004	0
bin	0.006	0
bin	0.008	0
bin	0.01	0
bin	0.012	0
bin	0.014	0
bin	0.016	0
bin	0.018	0
bin	0.02	0
bin	0.022	0
bin	0.024	0
bin	0.026	0
bin	0.028	0
bin	0.03	0
bin	0.032	0
bin	0.034	0
bin	0.036	0
bin	0.038	0
bin	0.04	0
bin	0.042	0
bin	0.044	0
bin	0.046	0
bin	0.048	0
bin	0.05	0
bin	0.052	0
bin	0.054	0
bin	0.056	0
bin	0.058	0
bin	0.06	0
bin	0.062	0
bin	0.064	0
bin	0.066	0
bin	0.068	0
bin	0.07	0
bin	0.072	0
bin	0.074	0
bin	0.076	0
bin	0.078	0
bin	0.08	0
bin	0.082	0
bin	0.084	0
bin	0.086	0
bin	0.088	0
bin	0.09	0
bin	0.092	0
bin	0.094	0
bin	0.096	2
bin	0.098	3
bin	0.1	0
bin	0.102	0
bin	0.104	0
bin	0.106	0
bin	0.108	0
bin	0.11	0
bin	0.112	0
bin	0.114	0
bin	0.116	0
bin	0.118	0
bin	0.12	0
bin	0.122	0
bin	0.124	0
bin	0.126	0
scalar AODVnormal.N[5].wlan[0].mac.queue queueLength:max 2
attr interpolationmode sample-hold
attr source "count(packetPushed) - count(packetPopped) - count(packetRemoved) - count(packetDropped)"
attr title "queue length, max"
scalar AODVnormal.N[5].wlan[0].mac.queue queueLength:timeavg 0.0024805734764628
attr interpolationmode sample-hold
attr source "count(packetPushed) - count(packetPopped) - count(packetRemoved) - count(packetDropped)"
attr title "queue length, timeavg"
scalar AODVnormal.N[5].wlan[0].mac.queue packetPushed:count 476
attr interpolationmode none
attr title "packet pushed, count"
scalar AODVnormal.N[5].wlan[0].mac.queue packetPushed:sum(packetBytes) 41028
attr interpolationmode none
attr title "packet pushed, sum(packetBytes)"
scalar AODVnormal.N[5].wlan[0].mac.queue packetDropQueueOverflow:count 0
attr interpolationmode none
attr source packetDropReasonIsQueueOverflow(packetDropped)
attr title "packet drops: queue overflow, count"
scalar AODVnormal.N[5].wlan[0].mac.queue packetDropQueueOverflow:sum(packetBytes) 0
attr interpolationmode none
attr source packetDropReasonIsQueueOverflow(packetDropped)
attr title "packet drops: queue overflow, sum(packetBytes)"
scalar AODVnormal.N[5].wlan[0].mac.queue packetRemoved:count 0
attr interpolationmode none
attr title "packets removed, count"
scalar AODVnormal.N[5].wlan[0].mac.queue packetRemoved:sum(packetBytes) 0
attr interpolationmode none
attr title "packets removed, sum(packetBytes)"
scalar AODVnormal.N[5].wlan[0].mac rcvdPkFromLl:count 3695
attr interpolationmode none
attr source packetReceivedFromLower
attr title "packets received from lower layer, count"
scalar AODVnormal.N[5].wlan[0].mac rcvdPkFromLl:sum(packetBytes) 546173
attr interpolationmode none
attr source packetReceivedFromLower
attr title "packets received from lower layer, sum(packetBytes)"
scalar AODVnormal.N[5].wlan[0].mac sentDownPk:count 476
attr interpolationmode none
attr source packetSentToLower
attr title "packets sent to lower layer, count"
scalar AODVnormal.N[5].wlan[0].mac sentDownPk:sum(packetBytes) 51976
attr interpolationmode none
attr source packetSentToLower
attr title "packets sent to lower layer, sum(packetBytes)"
scalar AODVnormal.N[5].wlan[0].mac rcvdPkFromHl:count 476
attr interpolationmode none
attr source packetReceivedFromUpper
attr title "packets received from higher layer, count"
scalar AODVnormal.N[5].wlan[0].mac rcvdPkFromHl:sum(packetBytes) 41028
attr interpolationmode none
attr source packetReceivedFromUpper
attr title "packets received from higher layer, sum(packetBytes)"
scalar AODVnormal.N[5].wlan[0].mac passedUpPk:count 2735
attr interpolationmode none
attr source packetSentToUpper
attr title "packets passed to higher layer, count"
scalar AODVnormal.N[5].wlan[0].mac passedUpPk:sum(packetBytes) 155576
attr interpolationmode none
attr source packetSentToUpper
attr title "packets passed to higher layer, sum(packetBytes)"
scalar AODVnormal.N[5].wlan[0].mac packetDropIncorrectlyReceived:count 0
attr interpolationmode none
attr source packetDropReasonIsIncorrectlyReceived(packetDropped)
attr title "packet drop: incorrectly received, count"
scalar AODVnormal.N[5].wlan[0].mac packetDropIncorrectlyReceived:sum(packetBytes) 0
attr interpolationmode none
attr source packetDropReasonIsIncorrectlyReceived(packetDropped)
attr title "packet drop: incorrectly received, sum(packetBytes)"
scalar AODVnormal.N[5].wlan[0].mac packetDropInterfaceDown:count 0
attr interpolationmode none
attr source packetDropReasonIsInterfaceDown(packetDropped)
attr title "packet drop: interface down, count"
scalar AODVnormal.N[5].wlan[0].mac packetDropInterfaceDown:sum(packetBytes) 0
attr interpolationmode none
attr source packetDropReasonIsInterfaceDown(packetDropped)
attr title "packet drop: interface down, sum(packetBytes)"
scalar AODVnormal.N[5].wlan[0].mac packetDropNotAddressedToUs:count 960
attr interpolationmode none
attr source packetDropReasonIsNotAddressedToUs(packetDropped)
attr title "packet drop: not addressed to us, count"
scalar AODVnormal.N[5].wlan[0].mac packetDropNotAddressedToUs:sum(packetBytes) 327692
attr interpolationmode none
attr source packetDropReasonIsNotAddressedToUs(packetDropped)
attr title "packet drop: not addressed to us, sum(packetBytes)"
scalar AODVnormal.N[5].wlan[0].mac linkBroken:count 8
attr interpolationmode none
attr source linkBroken
attr title "link break, count"
scalar AODVnormal.N[5].wlan[0].radio radioMode:count 3
attr interpolationmode sample-hold
attr source radioModeChanged
attr title "Radio mode, count"
scalar AODVnormal.N[5].wlan[0].radio receptionState:count 8112
attr interpolationmode sample-hold
attr source receptionStateChanged
attr title "Radio reception state, count"
scalar AODVnormal.N[5].wlan[0].radio transmissionState:count 953
attr interpolationmode sample-hold
attr source transmissionStateChanged
attr title "Radio transmission state, count"
statistic AODVnormal.N[5].wlan[0].radio minSnir:histogram
field count 0
field mean -nan
field stddev nan
field min nan
field max nan
field sum 0
field sqrsum 0
attr source minimumSnir(packetSentToUpper)
attr title "Min SNIR, histogram"
bin	-inf	0
bin	0	0
bin	1	0
statistic AODVnormal.N[5].wlan[0].radio packetErrorRate:histogram
field count 3695
field mean 0.27956698240866
field stddev 0.44884719907075
field min 0
field max 1
field sum 1033
field sqrsum 1033
attr source packetErrorRate(packetSentToUpper)
attr title "Packet error rate, histogram"
bin	-inf	0
bin	0	2662
bin	1	1033
bin	2	0
statistic AODVnormal.N[5].wlan[0].radio bitErrorRate:histogram
field count 3695
field mean 0.27956698240866
field stddev 0.44884719907075
field min 0
field max 1
field sum 1033
field sqrsum 1033
attr source bitErrorRate(packetSentToUpper)
attr title "Bit error rate, histogram"
bin	-inf	0
bin	0	2662
bin	1	1033
bin	2	0
statistic AODVnormal.N[5].wlan[0].radio symbolErrorRate:histogram
field count 3695
field mean 0.27956698240866
field stddev 0.44884719907075
field min 0
field max 1
field sum 1033
field sqrsum 1033
attr source symbolErrorRate(packetSentToUpper)
attr title "Symbol error rate, histogram"
bin	-inf	0
bin	0	2662
bin	1	1033
bin	2	0
scalar AODVnormal.N[5].ipv4.ip packetDropAddressResolutionFailed:count 2
attr interpolationmode none
attr source packetDropReasonIsAddressResolutionFailed(packetDropped)
attr title "packet drop: address resolution failed, count"
scalar AODVnormal.N[5].ipv4.ip packetDropAddressResolutionFailed:sum(packetBytes) 96
attr interpolationmode none
attr source packetDropReasonIsAddressResolutionFailed(packetDropped)
attr title "packet drop: address resolution failed, sum(packetBytes)"
scalar AODVnormal.N[5].ipv4.ip packetDropHopLimitReached:count 0
attr interpolationmode none
attr source packetDropReasonIsHopLimitReached(packetDropped)
attr title "packet drop: hop limit reached, count"
scalar AODVnormal.N[5].ipv4.ip packetDropHopLimitReached:sum(packetBytes) 0
attr interpolationmode none
attr source packetDropReasonIsHopLimitReached(packetDropped)
attr title "packet drop: hop limit reached, sum(packetBytes)"
scalar AODVnormal.N[5].ipv4.ip packetDropForwardingDisabled:count 0
attr interpolationmode none
attr source packetDropReasonIsForwardingDisabled(packetDropped)
attr title "packet drop: forwarding disabled, count"
scalar AODVnormal.N[5].ipv4.ip packetDropForwardingDisabled:sum(packetBytes) 0
attr interpolationmode none
attr source packetDropReasonIsForwardingDisabled(packetDropped)
attr title "packet drop: forwarding disabled, sum(packetBytes)"
scalar AODVnormal.N[5].ipv4.ip packetDropNoInterfaceFound:count 0
attr interpolationmode none
attr source packetDropReasonIsNoInterfaceFound(packetDropped)
attr title "packet drop: no interface found, count"
scalar AODVnormal.N[5].ipv4.ip packetDropNoInterfaceFound:sum(packetBytes) 0
attr interpolationmode none
attr source packetDropReasonIsNoInterfaceFound(packetDropped)
attr title "packet drop: no interface found, sum(packetBytes)"
scalar AODVnormal.N[5].ipv4.ip packetDropNoRouteFound:count 0
attr interpolationmode none
attr source packetDropReasonIsNoRouteFound(packetDropped)
attr title "packet drop: no route found, count"
scalar AODVnormal.N[5].ipv4.ip packetDropNoRouteFound:sum(packetBytes) 0
attr interpolationmode none
attr source packetDropReasonIsNoRouteFound(packetDropped)
attr title "packet drop: no route found, sum(packetBytes)"
scalar AODVnormal.N[5].ipv4.ip packetDropUndefined:count 0
attr interpolationmode none
attr source packetDropReasonIsUndefined(packetDropped)
attr title "packet drop: undefined, count"
scalar AODVnormal.N[5].ipv4.ip packetDropUndefined:sum(packetBytes) 0
attr interpolationmode none
attr source packetDropReasonIsUndefined(packetDropped)
attr title "packet drop: undefined, sum(packetBytes)"
scalar AODVnormal.N[5].ipv4.arp arpResolutionFailed:count 2
attr title "ARP failed resolutions, count"
scalar AODVnormal.N[5].ipv4.arp arpResolutionCompleted:count 46
attr title "ARP completed resolutions, count"
scalar AODVnormal.N[5].ipv4.arp arpResolutionInitiated:count 11
attr title "ARP initiated resolutions, count"
scalar AODVnormal.N[5].ipv4.arp arpReplySent:count 9
attr source arpReplySent
attr title "ARP replies sent, count"
scalar AODVnormal.N[5].ipv4.arp arpReplySent:sum(packetBytes) 252
attr source arpReplySent
attr title "ARP replies sent, sum(packetBytes)"
scalar AODVnormal.N[5].ipv4.arp arpRequestSent:count 20
attr source arpRequestSent
attr title "ARP request sent, count"
[...]
attr interpolationmode none
attr source packetDropReasonIsNotAddressedToUs(packetDropped)
attr title "packet drop: not addressed to us, count"
scalar AODVnormal.F1.wlan[0].mac packetDropNotAddressedToUs:sum(packetBytes) 214147
attr interpolationmode none
attr source packetDropReasonIsNotAddressedToUs(packetDropped)
attr title "packet drop: not addressed to us, sum(packetBytes)"
scalar AODVnormal.F1.wlan[0].mac linkBroken:count 13
attr interpolationmode none
attr source linkBroken
attr title "link break, count"
scalar AODVnormal.F1.wlan[0].radio radioMode:count 3
attr interpolationmode sample-hold
attr source radioModeChanged
attr title "Radio mode, count"
scalar AODVnormal.F1.wlan[0].radio receptionState:count 5980
attr interpolationmode sample-hold
attr source receptionStateChanged
attr title "Radio reception state, count"
scalar AODVnormal.F1.wlan[0].radio transmissionState:count 1147
attr interpolationmode sample-hold
attr source transmissionStateChanged
attr title "Radio transmission state, count"
statistic AODVnormal.F1.wlan[0].radio minSnir:histogram
field count 0
field mean -nan
field stddev nan
field min nan
field max nan
field sum 0
field sqrsum 0
attr source minimumSnir(packetSentToUpper)
attr title "Min SNIR, histogram"
bin	-inf	0
bin	0	0
bin	1	0
statistic AODVnormal.F1.wlan[0].radio packetErrorRate:histogram
field count 2798
field mean 0.20979270907791
field stddev 0.40723334692243
field min 0
field max 1
field sum 587
field sqrsum 587
attr source packetErrorRate(packetSentToUpper)
attr title "Packet error rate, histogram"
bin	-inf	0
bin	0	2211
bin	1	587
bin	2	0
statistic AODVnormal.F1.wlan[0].radio bitErrorRate:histogram
field count 2798
field mean 0.20979270907791
field stddev 0.40723334692243
field min 0
field max 1
field sum 587
field sqrsum 587
attr source bitErrorRate(packetSentToUpper)
attr title "Bit error rate, histogram"
bin	-inf	0
bin	0	2211
bin	1	587
bin	2	0
statistic AODVnormal.F1.wlan[0].radio symbolErrorRate:histogram
field count 2798
field mean 0.20979270907791
field stddev 0.40723334692243
field min 0
field max 1
field sum 587
field sqrsum 587
attr source symbolErrorRate(packetSentToUpper)
attr title "Symbol error rate, histogram"
bin	-inf	0
bin	0	2211
bin	1	587
bin	2	0
scalar AODVnormal.F1.ipv4.ip delayed:count 0
attr interpolationmode none
attr title "Number of packet delayed, count"
scalar AODVnormal.F1.ipv4.ip rcvdPkt:count 0
attr interpolationmode none
attr title "Number of packet received, count"
scalar AODVnormal.F1.ipv4.ip droppings:count 0
attr interpolationmode none
attr title "Number of drops, count"
scalar AODVnormal.F1.ipv4.ip packetDropAddressResolutionFailed:count 0
attr interpolationmode none
attr source packetDropReasonIsAddressResolutionFailed(packetDropped)
attr title "packet drop: address resolution failed, count"
scalar AODVnormal.F1.ipv4.ip packetDropAddressResolutionFailed:sum(packetBytes) 0
attr interpolationmode none
attr source packetDropReasonIsAddressResolutionFailed(packetDropped)
attr title "packet drop: address resolution failed, sum(packetBytes)"
scalar AODVnormal.F1.ipv4.ip packetDropHopLimitReached:count 0
attr interpolationmode none
attr source packetDropReasonIsHopLimitReached(packetDropped)
attr title "packet drop: hop limit reached, count"
scalar AODVnormal.F1.ipv4.ip packetDropHopLimitReached:sum(packetBytes) 0
attr interpolationmode none
attr source packetDropReasonIsHopLimitReached(packetDropped)
attr title "packet drop: hop limit reached, sum(packetBytes)"
scalar AODVnormal.F1.ipv4.ip packetDropForwardingDisabled:count 0
attr interpolationmode none
attr source packetDropReasonIsForwardingDisabled(packetDropped)
attr title "packet drop: forwarding disabled, count"
scalar AODVnormal.F1.ipv4.ip packetDropForwardingDisabled:sum(packetBytes) 0
attr interpolationmode none
attr source packetDropReasonIsForwardingDisabled(packetDropped)
attr title "packet drop: forwarding disabled, sum(packetBytes)"
scalar AODVnormal.F1.ipv4.ip packetDropNoInterfaceFound:count 0
attr interpolationmode none
attr source packetDropReasonIsNoInterfaceFound(packetDropped)
attr title "packet drop: no interface found, count"
scalar AODVnormal.F1.ipv4.ip packetDropNoInterfaceFound:sum(packetBytes) 0
attr interpolationmode none
attr source packetDropReasonIsNoInterfaceFound(packetDropped)
attr title "packet drop: no interface found, sum(packetBytes)"
scalar AODVnormal.F1.ipv4.ip packetDropNoRouteFound:count 0
attr interpolationmode none
attr source packetDropReasonIsNoRouteFound(packetDropped)
attr title "packet drop: no route found, count"
scalar AODVnormal.F1.ipv4.ip packetDropNoRouteFound:sum(packetBytes) 0
attr interpolationmode none
attr source packetDropReasonIsNoRouteFound(packetDropped)
attr title "packet drop: no route found, sum(packetBytes)"
scalar AODVnormal.F1.ipv4.ip packetDropUndefined:count 0
attr interpolationmode none
attr source packetDropReasonIsUndefined(packetDropped)
attr title "packet drop: undefined, count"
scalar AODVnormal.F1.ipv4.ip packetDropUndefined:sum(packetBytes) 0
attr interpolationmode none
attr source packetDropReasonIsUndefined(packetDropped)
attr title "packet drop: undefined, sum(packetBytes)"
scalar AODVnormal.F1.ipv4.arp arpResolutionFailed:count 0
attr title "ARP failed resolutions, count"
scalar AODVnormal.F1.ipv4.arp arpResolutionCompleted:count 97
attr title "ARP completed resolutions, count"
scalar AODVnormal.F1.ipv4.arp arpResolutionInitiated:count 12
attr title "ARP initiated resolutions, count"
scalar AODVnormal.F1.ipv4.arp arpReplySent:count 11
attr source arpReplySent
attr title "ARP replies sent, count"
scalar AODVnormal.F1.ipv4.arp arpReplySent:sum(packetBytes) 308
attr source arpReplySent
attr title "ARP replies sent, sum(packetBytes)"
scalar AODVnormal.F1.ipv4.arp arpRequestSent:count 14
attr source arpRequestSent
attr title "ARP request sent, count"
scalar AODVnormal.F1.ipv4.arp arpRequestSent:sum(packetBytes) 392
attr source arpRequestSent
attr title "ARP request sent, sum(packetBytes)"
scalar AODVnormal.F1.udp packetReceived:count 1902
attr interpolationmode none
attr source packetReceived
attr title "packets received, count"
scalar AODVnormal.F1.udp packetReceived:sum(packetBytes) 61024
attr interpolationmode none
attr source packetReceived
attr title "packets received, sum(packetBytes)"
scalar AODVnormal.F1.udp packetSent:count 472
attr interpolationmode none
attr source packetSent
attr title "packets sent, count"
scalar AODVnormal.F1.udp packetSent:sum(packetBytes) 14936
attr interpolationmode none
attr source packetSent
attr title "packets sent, sum(packetBytes)"
scalar AODVnormal.F1.udp passedUpPk:count 1902
attr interpolationmode none
attr source packetSentToUpper
attr title "packets passed up, count"
scalar AODVnormal.F1.udp droppedPkWrongPort:count 0
attr interpolationmode none
attr source packetDropReasonIsNoPortFound(packetDropped)
attr title "packets dropped (wrong port), count"
scalar AODVnormal.F1.udp droppedPkBadChecksum:count 0
attr interpolationmode none
attr source packetDropReasonIsIncorrectlyReceived(packetDropped)
attr title "packets dropped (checksum error), count"
scalar AODVnormal.F2.lo[0].lo rcvdPkFromHl:count 0
attr interpolationmode none
attr source packetReceivedFromUpper
attr title "packets received from higher layer, count"
scalar AODVnormal.F2.lo[0].lo rcvdPkFromHl:sum(packetBytes) 0
attr interpolationmode none
attr source packetReceivedFromUpper
attr title "packets received from higher layer, sum(packetBytes)"
scalar AODVnormal.F2.lo[0].lo passedUpPk:count 0
attr interpolationmode none
attr source packetSentToUpper
attr title "packets passed to higher layer, count"
scalar AODVnormal.F2.lo[0].lo passedUpPk:sum(packetBytes) 0
attr interpolationmode none
attr source packetSentToUpper
attr title "packets passed to higher layer, sum(packetBytes)"
scalar AODVnormal.F2.wlan[0].mac.queue packetPopped:count 591
attr interpolationmode none
attr title "packet popped, count"
scalar AODVnormal.F2.wlan[0].mac.queue packetPopped:sum(packetBytes) 65748
attr interpolationmode none
attr title "packet popped, sum(packetBytes)"
statistic AODVnormal.F2.wlan[0].mac.queue queueingTime:histogram
field count 591
field mean 0.0014823010250203
field stddev 0.011557995664668
field min 0
field max 0.097699676161
field sum 0.876039905787
field sqrsum 0.080115040483156
attr interpolationmode none
attr source queueingTime(packetPopped)
attr title "queueing times, histogram"
attr unit s
bin	-inf	0
bin	-0.5	0
bin	-0.48	0
bin	-0.46	0
bin	-0.44	0
bin	-0.42	0
bin	-0.4	0
bin	-0.38	0
bin	-0.36	0
bin	-0.34	0
bin	-0.32	0
bin	-0.3	0
bin	-0.28	0
bin	-0.26	0
bin	-0.24	0
bin	-0.22	0
bin	-0.2	0
bin	-0.18	0
bin	-0.16	0
bin	-0.14	0
bin	-0.12	0
bin	-0.1	0
bin	-0.08	0
bin	-0.06	0
bin	-0.04	0
bin	-0.02	0
bin	0	582
bin	0.02	0
bin	0.04	0
bin	0.06	0
bin	0.08	9
bin	0.1	0
bin	0.12	0
bin	0.14	0
bin	0.16	0
bin	0.18	0
bin	0.2	0
bin	0.22	0
bin	0.24	0
bin	0.26	0
bin	0.28	0
bin	0.3	0
bin	0.32	0
bin	0.34	0
bin	0.36	0
bin	0.38	0
bin	0.4	0
bin	0.42	0
bin	0.44	0
bin	0.46	0
bin	0.48	0
bin	0.5	0
scalar AODVnormal.F2.wlan[0].mac.queue queueLength:max 4
attr interpolationmode sample-hold
attr source "count(packetPushed) - count(packetPopped) - count(packetRemoved) - count(packetDropped)"
attr title "queue length, max"
scalar AODVnormal.F2.wlan[0].mac.queue queueLength:timeavg 0.0043803088193695
attr interpolationmode sample-hold
attr source "count(packetPushed) - count(packetPopped) - count(packetRemoved) - count(packetDropped)"
attr title "queue length, timeavg"
scalar AODVnormal.F2.wlan[0].mac.queue packetPushed:count 591
attr interpolationmode none
attr title "packet pushed, count"
scalar AODVnormal.F2.wlan[0].mac.queue packetPushed:sum(packetBytes) 65748
attr interpolationmode none
attr title "packet pushed, sum(packetBytes)"
scalar AODVnormal.F2.wlan[0].mac.queue packetDropQueueOverflow:count 0
attr interpolationmode none
attr source packetDropReasonIsQueueOverflow(packetDropped)
attr title "packet drops: queue overflow, count"
scalar AODVnormal.F2.wlan[0].mac.queue packetDropQueueOverflow:sum(packetBytes) 0
attr interpolationmode none
attr source packetDropReasonIsQueueOverflow(packetDropped)
attr title "packet drops: queue overflow, sum(packetBytes)"
scalar AODVnormal.F2.wlan[0].mac.queue packetRemoved:count 0
attr interpolationmode none
attr title "packets removed, count"
scalar AODVnormal.F2.wlan[0].mac.queue packetRemoved:sum(packetBytes) 0
attr interpolationmode none
attr title "packets removed, sum(packetBytes)"
scalar AODVnormal.F2.wlan[0].mac rcvdPkFromLl:count 2873
attr interpolationmode none
attr source packetReceivedFromLower
attr title "packets received from lower layer, count"
scalar AODVnormal.F2.wlan[0].mac rcvdPkFromLl:sum(packetBytes) 446523
attr interpolationmode none
attr source packetReceivedFromLower
attr title "packets received from lower layer, sum(packetBytes)"
scalar AODVnormal.F2.wlan[0].mac sentDownPk:count 591
attr interpolationmode none
attr source packetSentToLower
attr title "packets sent to lower layer, count"
scalar AODVnormal.F2.wlan[0].mac sentDownPk:sum(packetBytes) 79341
attr interpolationmode none
attr source packetSentToLower
attr title "packets sent to lower layer, sum(packetBytes)"
scalar AODVnormal.F2.wlan[0].mac rcvdPkFromHl:count 591
attr interpolationmode none
attr source packetReceivedFromUpper
attr title "packets received from higher layer, count"
scalar AODVnormal.F2.wlan[0].mac rcvdPkFromHl:sum(packetBytes) 65748
attr interpolationmode none
attr source packetReceivedFromUpper
attr title "packets received from higher layer, sum(packetBytes)"
scalar AODVnormal.F2.wlan[0].mac passedUpPk:count 2209
attr interpolationmode none
attr source packetSentToUpper
attr title "packets passed to higher layer, count"
scalar AODVnormal.F2.wlan[0].mac passedUpPk:sum(packetBytes) 148756
attr interpolationmode none
attr source packetSentToUpper
attr title "packets passed to higher layer, sum(packetBytes)"
scalar AODVnormal.F2.wlan[0].mac packetDropIncorrectlyReceived:count 0
attr interpolationmode none
attr source packetDropReasonIsIncorrectlyReceived(packetDropped)
attr title "packet drop: incorrectly received, count"
scalar AODVnormal.F2.wlan[0].mac packetDropIncorrectlyReceived:sum(packetBytes) 0
attr interpolationmode none
attr source packetDropReasonIsIncorrectlyReceived(packetDropped)
attr title "packet drop: incorrectly received, sum(packetBytes)"
scalar AODVnormal.F2.wlan[0].mac packetDropInterfaceDown:count 0
attr interpolationmode none
attr source packetDropReasonIsInterfaceDown(packetDropped)
attr title "packet drop: interface down, count"
scalar AODVnormal.F2.wlan[0].mac packetDropInterfaceDown:sum(packetBytes) 0
attr interpolationmode none
attr source packetDropReasonIsInterfaceDown(packetDropped)
attr title "packet drop: interface down, sum(packetBytes)"
scalar AODVnormal.F2.wlan[0].mac packetDropNotAddressedToUs:count 664
attr interpolationmode none
attr source packetDropReasonIsNotAddressedToUs(packetDropped)
attr title "packet drop: not addressed to us, count"
scalar AODVnormal.F2.wlan[0].mac packetDropNotAddressedToUs:sum(packetBytes) 246960
attr interpolationmode none
attr source packetDropReasonIsNotAddressedToUs(packetDropped)
attr title "packet drop: not addressed to us, sum(packetBytes)"
scalar AODVnormal.F2.wlan[0].mac linkBroken:count 14
attr interpolationmode none
attr source linkBroken
attr title "link break, count"
scalar AODVnormal.F2.wlan[0].radio radioMode:count 3
attr interpolationmode sample-hold
attr source radioModeChanged
attr title "Radio mode, count"
scalar AODVnormal.F2.wlan[0].radio receptionState:count 6201
attr interpolationmode sample-hold
attr source receptionStateChanged
attr title "Radio reception state, count"
scalar AODVnormal.F2.wlan[0].radio transmissionState:count 1183
attr interpolationmode sample-hold
attr source transmissionStateChanged
attr title "Radio transmission state, count"
statistic AODVnormal.F2.wlan[0].radio minSnir:histogram
field count 0
field mean -nan
field stddev nan
field min nan
field max nan
field sum 0
field sqrsum 0
attr source minimumSnir(packetSentToUpper)
attr title "Min SNIR, histogram"
bin	-inf	0
bin	0	0
bin	1	0
statistic AODVnormal.F2.wlan[0].radio packetErrorRate:histogram
field count 2873
field mean 0.22171945701357
field stddev 0.41547565866069
field min 0
field max 1
field sum 637
field sqrsum 637
attr source packetErrorRate(packetSentToUpper)
attr title "Packet error rate, histogram"
bin	-inf	0
bin	0	2236
bin	1	637
bin	2	0
statistic AODVnormal.F2.wlan[0].radio bitErrorRate:histogram
field count 2873
field mean 0.22171945701357
field stddev 0.41547565866069
field min 0
field max 1
field sum 637
field sqrsum 637
attr source bitErrorRate(packetSentToUpper)
attr title "Bit error rate, histogram"
bin	-inf	0
bin	0	2236
bin	1	637
bin	2	0
statistic AODVnormal.F2.wlan[0].radio symbolErrorRate:histogram
field count 2873
field mean 0.22171945701357
field stddev 0.41547565866069
field min 0
field max 1
field sum 637
field sqrsum 637
attr source symbolErrorRate(packetSentToUpper)
attr title "Symbol error rate, histogram"
bin	-inf	0
bin	0	2236
bin	1	637
bin	2	0
scalar AODVnormal.F2.ipv4.ip delayed:count 0
attr interpolationmode none
attr title "Number of packet delayed, count"
scalar AODVnormal.F2.ipv4.ip rcvdPkt:count 0
attr interpolationmode none
attr title "Number of packet received, count"
scalar AODVnormal.F2.ipv4.ip droppings:count 0
attr interpolationmode none
attr title "Number of drops, count"
scalar AODVnormal.F2.ipv4.ip packetDropAddressResolutionFailed:count 0
attr interpolationmode none
attr source packetDropReasonIsAddressResolutionFailed(packetDropped)
attr title "packet drop: address resolution failed, count"
scalar AODVnormal.F2.ipv4.ip packetDropAddressResolutionFailed:sum(packetBytes) 0
attr interpolationmode none
attr source packetDropReasonIsAddressResolutionFailed(packetDropped)
attr title "packet drop: address resolution failed, sum(packetBytes)"
scalar AODVnormal.F2.ipv4.ip packetDropHopLimitReached:count 0
attr interpolationmode none
attr source packetDropReasonIsHopLimitReached(packetDropped)
attr title "packet drop: hop limit reached, count"
scalar AODVnormal.F2.ipv4.ip packetDropHopLimitReached:sum(packetBytes) 0
attr interpolationmode none
attr source packetDropReasonIsHopLimitReached(packetDropped)
attr title "packet drop: hop limit reached, sum(packetBytes)"
scalar AODVnormal.F2.ipv4.ip packetDropForwardingDisabled:count 0
attr interpolationmode none
attr source packetDropReasonIsForwardingDisabled(packetDropped)
attr title "packet drop: forwarding disabled, count"
scalar AODVnormal.F2.ipv4.ip packetDropForwardingDisabled:sum(packetBytes) 0
attr interpolationmode none
attr source packetDropReasonIsForwardingDisabled(packetDropped)
attr title "packet drop: forwarding disabled, sum(packetBytes)"
scalar AODVnormal.F2.ipv4.ip packetDropNoInterfaceFound:count 0
attr interpolationmode none
attr source packetDropReasonIsNoInterfaceFound(packetDropped)
attr title "packet drop: no interface found, count"
scalar AODVnormal.F2.ipv4.ip packetDropNoInterfaceFound:sum(packetBytes) 0
attr interpolationmode none
attr source packetDropReasonIsNoInterfaceFound(packetDropped)
attr title "packet drop: no interface found, sum(packetBytes)"
scalar AODVnormal.F2.ipv4.ip packetDropNoRouteFound:count 0
attr interpolationmode none
attr source packetDropReasonIsNoRouteFound(packetDropped)
attr title "packet drop: no route found, count"
scalar AODVnormal.F2.ipv4.ip packetDropNoRouteFound:sum(packetBytes) 0
attr interpolationmode none
attr source packetDropReasonIsNoRouteFound(packetDropped)
attr title "packet drop: no route found, sum(packetBytes)"
scalar AODVnormal.F2.ipv4.ip packetDropUndefined:count 0
attr interpolationmode none
attr source packetDropReasonIsUndefined(packetDropped)
attr title "packet drop: undefined, count"
scalar AODVnormal.F2.ipv4.ip packetDropUndefined:sum(packetBytes) 0
attr interpolationmode none
attr source packetDropReasonIsUndefined(packetDropped)
attr title "packet drop: undefined, sum(packetBytes)"
scalar AODVnormal.F2.ipv4.arp arpResolutionFailed:count 0
attr title "ARP failed resolutions, count"
scalar AODVnormal.F2.ipv4.arp arpResolutionCompleted:count 59
attr title "ARP completed resolutions, count"
scalar AODVnormal.F2.ipv4.arp arpResolutionInitiated:count 7
attr title "ARP initiated resolutions, count"
scalar AODVnormal.F2.ipv4.arp arpReplySent:count 12
attr source arpReplySent
attr title "ARP replies sent, count"
scalar AODVnormal.F2.ipv4.arp arpReplySent:sum(packetBytes) 336
attr source arpReplySent
attr title "ARP replies sent, sum(packetBytes)"
scalar AODVnormal.F2.ipv4.arp arpRequestSent:count 9
attr source arpRequestSent
attr title "ARP request sent, count"
scalar AODVnormal.F2.ipv4.arp arpRequestSent:sum(packetBytes) 252
attr source arpRequestSent
attr title "ARP request sent, sum(packetBytes)"
scalar AODVnormal.F2.udp packetReceived:count 2057
attr interpolationmode none
attr source packetReceived
attr title "packets received, count"
scalar AODVnormal.F2.udp packetReceived:sum(packetBytes) 65984
attr interpolationmode none
attr source packetReceived
attr title "packets received, sum(packetBytes)"
scalar AODVnormal.F2.udp packetSent:count 497
attr interpolationmode none
attr source packetSent
attr title "packets sent, count"
scalar AODVnormal.F2.udp packetSent:sum(packetBytes) 15800
attr interpolationmode none
attr source packetSent
attr title "packets sent, sum(packetBytes)"
scalar AODVnormal.F2.udp passedUpPk:count 2057
attr interpolationmode none
attr source packetSentToUpper
attr title "packets passed up, count"
scalar AODVnormal.F2.udp droppedPkWrongPort:count 0
attr interpolationmode none
attr source packetDropReasonIsNoPortFound(packetDropped)
attr title "packets dropped (wrong port), count"
scalar AODVnormal.F2.udp droppedPkBadChecksum:count 0
attr interpolationmode none
attr source packetDropReasonIsIncorrectlyReceived(packetDropped)
attr title "packets dropped (checksum error), count"

