file 6408824 1616490503                                         
version 2
run Static-0-20210323-16:08:08-4516
attr configname Static
attr datetime 20210323-16:08:08
attr experiment Static
attr inifile AODVnormal.ini
attr iterationvars ""
attr iterationvarsf ""
attr measurement ""
attr network AODVnormal
attr processid 4516
attr repetition 0
attr replication #0
attr resultdir results
attr runnumber 0
attr seedset 0
param **.host[*].mobility.typename "\"StationaryMobility\""
param **.wlan[*].typename "\"AckingWirelessInterface\""
param **.wlan[*].bitrate 2Mbps
param **.wlan[*].mac.headerLength 23B
param **.wlan[*].radio.typename "\"UnitDiskRadio\""
param **.wlan[*].radio.transmitter.headerLength 96b
param **.wlan[*].radio.transmitter.communicationRange 250m
param **.wlan[*].radio.transmitter.interferenceRange 0m
param **.wlan[*].radio.transmitter.detectionRange 0m
param **.wlan[*].radio.receiver.ignoreInterference true
param *.numHosts 20
param *.numSends 5
param *.numReceives 5
param **.mobility.constraintAreaMinZ 0m
param **.mobility.constraintAreaMaxZ 0m
param **.mobility.constraintAreaMinX 20m
param **.mobility.constraintAreaMinY 20m
param **.mobility.constraintAreaMaxX 980m
param **.mobility.constraintAreaMaxY 780m
param *.visualizer.dataLinkVisualizer.displayLinks true
param *.visualizer.networkRouteVisualizer.displayRoutes true
param *.visualizer.networkRouteVisualizer.lineShift 0
param *.visualizer.networkRouteVisualizer.packetFilter "\"UDPData*\""
param *.S[0].numApps 1
param *.S[0].app[0].typename "\"UdpBasicApp\""
param *.S[0].app[0].destAddresses "\"R[0]\""
param *.S[0].app[0].destPort 1000
param *.S[0].app[0].sendInterval 1s
param *.S[0].app[0].startTime 0s
param *.S[0].app[0].messageLength 512Byte
param *.S[0].app[0].packetName "\"UDPdata\""
param *.R[0].numApps 1
param *.R[0].app[0].typename "\"UdpSink\""
param *.R[0].app[0].localPort 1000
param *.S[1].numApps 1
param *.S[1].app[0].typename "\"UdpBasicApp\""
param *.S[1].app[0].destAddresses "\"R[1]\""
param *.S[1].app[0].destPort 1000
param *.S[1].app[0].sendInterval 1s
param *.S[1].app[0].startTime 0s
param *.S[1].app[0].messageLength 512Byte
param *.S[1].app[0].packetName "\"UDPdata\""
param *.R[1].numApps 1
param *.R[1].app[0].typename "\"UdpSink\""
param *.R[1].app[0].localPort 1000
param *.S[2].numApps 1
param *.S[2].app[0].typename "\"UdpBasicApp\""
param *.S[2].app[0].destAddresses "\"R[2]\""
param *.S[2].app[0].destPort 1000
param *.S[2].app[0].sendInterval 1s
param *.S[2].app[0].startTime 0s
param *.S[2].app[0].messageLength 512Byte
param *.S[2].app[0].packetName "\"UDPdata\""
param *.R[2].numApps 1
param *.R[2].app[0].typename "\"UdpSink\""
param *.R[2].app[0].localPort 1000
param *.S[3].numApps 1
param *.S[3].app[0].typename "\"UdpBasicApp\""
param *.S[3].app[0].destAddresses "\"R[3]\""
param *.S[3].app[0].destPort 1000
param *.S[3].app[0].sendInterval 1s
param *.S[3].app[0].startTime 0s
param *.S[3].app[0].messageLength 512Byte
param *.S[3].app[0].packetName "\"UDPdata\""
param *.R[3].numApps 1
param *.R[3].app[0].typename "\"UdpSink\""
param *.R[3].app[0].localPort 1000
param *.S[4].numApps 1
param *.S[4].app[0].typename "\"UdpBasicApp\""
param *.S[4].app[0].destAddresses "\"R[4]\""
param *.S[4].app[0].destPort 1000
param *.S[4].app[0].sendInterval 1s
param *.S[4].app[0].startTime 0s
param *.S[4].app[0].messageLength 512Byte
param *.S[4].app[0].packetName "\"UDPdata\""
param *.R[4].numApps 1
param *.R[4].app[0].typename "\"UdpSink\""
param *.R[4].app[0].localPort 1000
param **.hasStatus true

vector 0 AODVnormal.N[0].wlan[0].radio radioMode:vector ETV
attr interpolationmode sample-hold
attr source radioModeChanged
attr title "Radio mode, vector"
vector 1 AODVnormal.N[1].wlan[0].radio radioMode:vector ETV
attr interpolationmode sample-hold
attr source radioModeChanged
attr title "Radio mode, vector"
vector 2 AODVnormal.N[2].wlan[0].radio radioMode:vector ETV
attr interpolationmode sample-hold
attr source radioModeChanged
attr title "Radio mode, vector"
vector 3 AODVnormal.N[3].wlan[0].radio radioMode:vector ETV
attr interpolationmode sample-hold
attr source radioModeChanged
attr title "Radio mode, vector"
vector 4 AODVnormal.N[4].wlan[0].radio radioMode:vector ETV
attr interpolationmode sample-hold
attr source radioModeChanged
attr title "Radio mode, vector"
vector 5 AODVnormal.N[5].wlan[0].radio radioMode:vector ETV
attr interpolationmode sample-hold
attr source radioModeChanged
attr title "Radio mode, vector"
vector 6 AODVnormal.N[6].wlan[0].radio radioMode:vector ETV
attr interpolationmode sample-hold
attr source radioModeChanged
attr title "Radio mode, vector"
vector 7 AODVnormal.N[7].wlan[0].radio radioMode:vector ETV
attr interpolationmode sample-hold
attr source radioModeChanged
attr title "Radio mode, vector"
vector 8 AODVnormal.N[8].wlan[0].radio radioMode:vector ETV
attr interpolationmode sample-hold
attr source radioModeChanged
attr title "Radio mode, vector"
vector 9 AODVnormal.N[9].wlan[0].radio radioMode:vector ETV
attr interpolationmode sample-hold
attr source radioModeChanged
attr title "Radio mode, vector"
vector 10 AODVnormal.N[10].wlan[0].radio radioMode:vector ETV
attr interpolationmode sample-hold
attr source radioModeChanged
attr title "Radio mode, vector"
vector 11 AODVnormal.N[11].wlan[0].radio radioMode:vector ETV
attr interpolationmode sample-hold
attr source radioModeChanged
attr title "Radio mode, vector"
vector 12 AODVnormal.N[12].wlan[0].radio radioMode:vector ETV
attr interpolationmode sample-hold
attr source radioModeChanged
attr title "Radio mode, vector"
vector 13 AODVnormal.N[13].wlan[0].radio radioMode:vector ETV
attr interpolationmode sample-hold
attr source radioModeChanged
attr title "Radio mode, vector"
vector 14 AODVnormal.N[14].wlan[0].radio radioMode:vector ETV
attr interpolationmode sample-hold
attr source radioModeChanged
attr title "Radio mode, vector"
vector 15 AODVnormal.N[15].wlan[0].radio radioMode:vector ETV
attr interpolationmode sample-hold
attr source radioModeChanged
attr title "Radio mode, vector"
vector 16 AODVnormal.N[16].wlan[0].radio radioMode:vector ETV
attr interpolationmode sample-hold
attr source radioModeChanged
attr title "Radio mode, vector"
vector 17 AODVnormal.N[17].wlan[0].radio radioMode:vector ETV
attr interpolationmode sample-hold
attr source radioModeChanged
attr title "Radio mode, vector"
vector 18 AODVnormal.N[18].wlan[0].radio radioMode:vector ETV
attr interpolationmode sample-hold
attr source radioModeChanged
attr title "Radio mode, vector"
vector 19 AODVnormal.N[19].wlan[0].radio radioMode:vector ETV
attr interpolationmode sample-hold
attr source radioModeChanged
attr title "Radio mode, vector"
vector 20 AODVnormal.S[0].wlan[0].radio radioMode:vector ETV
attr interpolationmode sample-hold
attr source radioModeChanged
attr title "Radio mode, vector"
vector 21 AODVnormal.S[1].wlan[0].radio radioMode:vector ETV
attr interpolationmode sample-hold
attr source radioModeChanged
attr title "Radio mode, vector"
vector 22 AODVnormal.S[2].wlan[0].radio radioMode:vector ETV
attr interpolationmode sample-hold
attr source radioModeChanged
attr title "Radio mode, vector"
vector 23 AODVnormal.S[3].wlan[0].radio radioMode:vector ETV
attr interpolationmode sample-hold
attr source radioModeChanged
attr title "Radio mode, vector"
vector 24 AODVnormal.S[4].wlan[0].radio radioMode:vector ETV
attr interpolationmode sample-hold
attr source radioModeChanged
attr title "Radio mode, vector"
vector 25 AODVnormal.R[0].wlan[0].radio radioMode:vector ETV
attr interpolationmode sample-hold
attr source radioModeChanged
attr title "Radio mode, vector"
vector 26 AODVnormal.R[1].wlan[0].radio radioMode:vector ETV
attr interpolationmode sample-hold
attr source radioModeChanged
attr title "Radio mode, vector"
vector 27 AODVnormal.R[2].wlan[0].radio radioMode:vector ETV
attr interpolationmode sample-hold
attr source radioModeChanged
attr title "Radio mode, vector"
vector 28 AODVnormal.R[3].wlan[0].radio radioMode:vector ETV
attr interpolationmode sample-hold
attr source radioModeChanged
attr title "Radio mode, vector"
vector 29 AODVnormal.R[4].wlan[0].radio radioMode:vector ETV
attr interpolationmode sample-hold
attr source radioModeChanged
attr title "Radio mode, vector"
vector 30 AODVnormal.N[0].wlan[0].radio receptionState:vector ETV
attr interpolationmode sample-hold
attr source receptionStateChanged
attr title "Radio reception state, vector"
vector 31 AODVnormal.N[0].wlan[0].radio transmissionState:vector ETV
attr interpolationmode sample-hold
attr source transmissionStateChanged
attr title "Radio transmission state, vector"
vector 32 AODVnormal.N[1].wlan[0].radio receptionState:vector ETV
attr interpolationmode sample-hold
attr source receptionStateChanged
attr title "Radio reception state, vector"
vector 33 AODVnormal.N[1].wlan[0].radio transmissionState:vector ETV
attr interpolationmode sample-hold
attr source transmissionStateChanged
attr title "Radio transmission state, vector"
vector 34 AODVnormal.N[2].wlan[0].radio receptionState:vector ETV
attr interpolationmode sample-hold
attr source receptionStateChanged
attr title "Radio reception state, vector"
vector 35 AODVnormal.N[2].wlan[0].radio transmissionState:vector ETV
attr interpolationmode sample-hold
attr source transmissionStateChanged
attr title "Radio transmission state, vector"
vector 36 AODVnormal.N[3].wlan[0].radio receptionState:vector ETV
attr interpolationmode sample-hold
attr source receptionStateChanged
attr title "Radio reception state, vector"
vector 37 AODVnormal.N[3].wlan[0].radio transmissionState:vector ETV
attr interpolationmode sample-hold
attr source transmissionStateChanged
attr title "Radio transmission state, vector"
vector 38 AODVnormal.N[4].wlan[0].radio receptionState:vector ETV
attr interpolationmode sample-hold
attr source receptionStateChanged
attr title "Radio reception state, vector"
vector 39 AODVnormal.N[4].wlan[0].radio transmissionState:vector ETV
attr interpolationmode sample-hold
attr source transmissionStateChanged
attr title "Radio transmission state, vector"
vector 40 AODVnormal.N[5].wlan[0].radio receptionState:vector ETV
attr interpolationmode sample-hold
attr source receptionStateChanged
attr title "Radio reception state, vector"
vector 41 AODVnormal.N[5].wlan[0].radio transmissionState:vector ETV
attr interpolationmode sample-hold
attr source transmissionStateChanged
attr title "Radio transmission state, vector"
vector 42 AODVnormal.N[6].wlan[0].radio receptionState:vector ETV
attr interpolationmode sample-hold
attr source receptionStateChanged
attr title "Radio reception state, vector"
vector 43 AODVnormal.N[6].wlan[0].radio transmissionState:vector ETV
attr interpolationmode sample-hold
attr source transmissionStateChanged
attr title "Radio transmission state, vector"
vector 44 AODVnormal.N[7].wlan[0].radio receptionState:vector ETV
attr interpolationmode sample-hold
attr source receptionStateChanged
attr title "Radio reception state, vector"
vector 45 AODVnormal.N[7].wlan[0].radio transmissionState:vector ETV
attr interpolationmode sample-hold
attr source transmissionStateChanged
attr title "Radio transmission state, vector"
vector 46 AODVnormal.N[8].wlan[0].radio receptionState:vector ETV
attr interpolationmode sample-hold
attr source receptionStateChanged
attr title "Radio reception state, vector"
vector 47 AODVnormal.N[8].wlan[0].radio transmissionState:vector ETV
attr interpolationmode sample-hold
attr source transmissionStateChanged
attr title "Radio transmission state, vector"
vector 48 AODVnormal.N[9].wlan[0].radio receptionState:vector ETV
attr interpolationmode sample-hold
attr source receptionStateChanged
attr title "Radio reception state, vector"
vector 49 AODVnormal.N[9].wlan[0].radio transmissionState:vector ETV
attr interpolationmode sample-hold
attr source transmissionStateChanged
attr title "Radio transmission state, vector"
vector 50 AODVnormal.N[10].wlan[0].radio receptionState:vector ETV
attr interpolationmode sample-hold
attr source receptionStateChanged
attr title "Radio reception state, vector"
vector 51 AODVnormal.N[10].wlan[0].radio transmissionState:vector ETV
attr interpolationmode sample-hold
attr source transmissionStateChanged
attr title "Radio transmission state, vector"
vector 52 AODVnormal.N[11].wlan[0].radio receptionState:vector ETV
attr interpolationmode sample-hold
attr source receptionStateChanged
attr title "Radio reception state, vector"
vector 53 AODVnormal.N[11].wlan[0].radio transmissionState:vector ETV
attr interpolationmode sample-hold
attr source transmissionStateChanged
attr title "Radio transmission state, vector"
vector 54 AODVnormal.N[12].wlan[0].radio receptionState:vector ETV
attr interpolationmode sample-hold
attr source receptionStateChanged
attr title "Radio reception state, vector"
vector 55 AODVnormal.N[12].wlan[0].radio transmissionState:vector ETV
attr interpolationmode sample-hold
attr source transmissionStateChanged
attr title "Radio transmission state, vector"
vector 56 AODVnormal.N[13].wlan[0].radio receptionState:vector ETV
attr interpolationmode sample-hold
attr source receptionStateChanged
attr title "Radio reception state, vector"
vector 57 AODVnormal.N[13].wlan[0].radio transmissionState:vector ETV
attr interpolationmode sample-hold
attr source transmissionStateChanged
attr title "Radio transmission state, vector"
vector 58 AODVnormal.N[14].wlan[0].radio receptionState:vector ETV
attr interpolationmode sample-hold
attr source receptionStateChanged
attr title "Radio reception state, vector"
vector 59 AODVnormal.N[14].wlan[0].radio transmissionState:vector ETV
attr interpolationmode sample-hold
attr source transmissionStateChanged
attr title "Radio transmission state, vector"
vector 60 AODVnormal.N[15].wlan[0].radio receptionState:vector ETV
attr interpolationmode sample-hold
attr source receptionStateChanged
attr title "Radio reception state, vector"
vector 61 AODVnormal.N[15].wlan[0].radio transmissionState:vector ETV
attr interpolationmode sample-hold
attr source transmissionStateChanged
attr title "Radio transmission state, vector"
vector 62 AODVnormal.N[16].wlan[0].radio receptionState:vector ETV
attr interpolationmode sample-hold
attr source receptionStateChanged
attr title "Radio reception state, vector"
vector 63 AODVnormal.N[16].wlan[0].radio transmissionState:vector ETV
attr interpolationmode sample-hold
attr source transmissionStateChanged
attr title "Radio transmission state, vector"
vector 64 AODVnormal.N[17].wlan[0].radio receptionState:vector ETV
attr interpolationmode sample-hold
attr source receptionStateChanged
attr title "Radio reception state, vector"
vector 65 AODVnormal.N[17].wlan[0].radio transmissionState:vector ETV
attr interpolationmode sample-hold
attr source transmissionStateChanged
attr title "Radio transmission state, vector"
vector 66 AODVnormal.N[18].wlan[0].radio receptionState:vector ETV
attr interpolationmode sample-hold
attr source receptionStateChanged
attr title "Radio reception state, vector"
vector 67 AODVnormal.N[18].wlan[0].radio transmissionState:vector ETV
attr interpolationmode sample-hold
attr source transmissionStateChanged
attr title "Radio transmission state, vector"
vector 68 AODVnormal.N[19].wlan[0].radio receptionState:vector ETV
attr interpolationmode sample-hold
attr source receptionStateChanged
attr title "Radio reception state, vector"
vector 69 AODVnormal.N[19].wlan[0].radio transmissionState:vector ETV
attr interpolationmode sample-hold
attr source transmissionStateChanged
attr title "Radio transmission state, vector"
vector 70 AODVnormal.S[0].wlan[0].radio receptionState:vector ETV
attr interpolationmode sample-hold
attr source receptionStateChanged
attr title "Radio reception state, vector"
vector 71 AODVnormal.S[0].wlan[0].radio transmissionState:vector ETV
attr interpolationmode sample-hold
attr source transmissionStateChanged
attr title "Radio transmission state, vector"
vector 72 AODVnormal.S[1].wlan[0].radio receptionState:vector ETV
attr interpolationmode sample-hold
attr source receptionStateChanged
attr title "Radio reception state, vector"
vector 73 AODVnormal.S[1].wlan[0].radio transmissionState:vector ETV
attr interpolationmode sample-hold
attr source transmissionStateChanged
attr title "Radio transmission state, vector"
vector 74 AODVnormal.S[2].wlan[0].radio receptionState:vector ETV
attr interpolationmode sample-hold
attr source receptionStateChanged
attr title "Radio reception state, vector"
vector 75 AODVnormal.S[2].wlan[0].radio transmissionState:vector ETV
attr interpolationmode sample-hold
attr source transmissionStateChanged
attr title "Radio transmission state, vector"
vector 76 AODVnormal.S[3].wlan[0].radio receptionState:vector ETV
attr interpolationmode sample-hold
attr source receptionStateChanged
attr title "Radio reception state, vector"
vector 77 AODVnormal.S[3].wlan[0].radio transmissionState:vector ETV
attr interpolationmode sample-hold
attr source transmissionStateChanged
attr title "Radio transmission state, vector"
vector 78 AODVnormal.S[4].wlan[0].radio receptionState:vector ETV
attr interpolationmode sample-hold
attr source receptionStateChanged
attr title "Radio reception state, vector"
vector 79 AODVnormal.S[4].wlan[0].radio transmissionState:vector ETV
attr interpolationmode sample-hold
attr source transmissionStateChanged
attr title "Radio transmission state, vector"
vector 80 AODVnormal.R[0].wlan[0].radio receptionState:vector ETV
attr interpolationmode sample-hold
attr source receptionStateChanged
attr title "Radio reception state, vector"
vector 81 AODVnormal.R[0].wlan[0].radio transmissionState:vector ETV
attr interpolationmode sample-hold
attr source transmissionStateChanged
attr title "Radio transmission state, vector"
vector 82 AODVnormal.R[1].wlan[0].radio receptionState:vector ETV
attr interpolationmode sample-hold
attr source receptionStateChanged
attr title "Radio reception state, vector"
vector 83 AODVnormal.R[1].wlan[0].radio transmissionState:vector ETV
attr interpolationmode sample-hold
attr source transmissionStateChanged
attr title "Radio transmission state, vector"
vector 84 AODVnormal.R[2].wlan[0].radio receptionState:vector ETV
attr interpolationmode sample-hold
attr source receptionStateChanged
attr title "Radio reception state, vector"
vector 85 AODVnormal.R[2].wlan[0].radio transmissionState:vector ETV
attr interpolationmode sample-hold
attr source transmissionStateChanged
attr title "Radio transmission state, vector"
vector 86 AODVnormal.R[3].wlan[0].radio receptionState:vector ETV
attr interpolationmode sample-hold
attr source receptionStateChanged
attr title "Radio reception state, vector"
vector 87 AODVnormal.R[3].wlan[0].radio transmissionState:vector ETV
attr interpolationmode sample-hold
attr source transmissionStateChanged
attr title "Radio transmission state, vector"
vector 88 AODVnormal.R[4].wlan[0].radio receptionState:vector ETV
attr interpolationmode sample-hold
attr source receptionStateChanged
attr title "Radio reception state, vector"
vector 89 AODVnormal.R[4].wlan[0].radio transmissionState:vector ETV
attr interpolationmode sample-hold
attr source transmissionStateChanged
attr title "Radio transmission state, vector"
vector 90 AODVnormal.S[0].app[0] packetSent:vector(packetBytes) ETV
attr interpolationmode none
attr source packetSent
attr title "packets sent, vector(packetBytes)"
vector 91 AODVnormal.S[1].app[0] packetSent:vector(packetBytes) ETV
attr interpolationmode none
attr source packetSent
attr title "packets sent, vector(packetBytes)"
vector 92 AODVnormal.S[2].app[0] packetSent:vector(packetBytes) ETV
attr interpolationmode none
attr source packetSent
attr title "packets sent, vector(packetBytes)"
vector 93 AODVnormal.S[3].app[0] packetSent:vector(packetBytes) ETV
attr interpolationmode none
attr source packetSent
attr title "packets sent, vector(packetBytes)"
vector 94 AODVnormal.S[4].app[0] packetSent:vector(packetBytes) ETV
attr interpolationmode none
attr source packetSent
attr title "packets sent, vector(packetBytes)"
vector 95 AODVnormal.S[0].udp packetSent:vector(packetBytes) ETV
attr interpolationmode none
attr source packetSent
attr title "packets sent, vector(packetBytes)"
vector 96 AODVnormal.S[1].udp packetSent:vector(packetBytes) ETV
attr interpolationmode none
attr source packetSent
attr title "packets sent, vector(packetBytes)"
vector 97 AODVnormal.S[2].udp packetSent:vector(packetBytes) ETV
attr interpolationmode none
attr source packetSent
attr title "packets sent, vector(packetBytes)"
vector 98 AODVnormal.S[3].udp packetSent:vector(packetBytes) ETV
attr interpolationmode none
attr source packetSent
attr title "packets sent, vector(packetBytes)"
vector 99 AODVnormal.S[4].udp packetSent:vector(packetBytes) ETV
attr interpolationmode none
attr source packetSent
attr title "packets sent, vector(packetBytes)"
vector 100 AODVnormal.S[3].wlan[0].mac rcvdPkFromHl:vector(packetBytes) ETV
attr interpolationmode none
attr source packetReceivedFromUpper
attr title "packets received from higher layer, vector(packetBytes)"
vector 101 AODVnormal.S[3].wlan[0].mac.queue packetPushed:vector(packetBytes) ETV
attr interpolationmode none
attr title "packet pushed, vector(packetBytes)"
vector 102 AODVnormal.S[3].wlan[0].mac.queue queueLength:vector ETV
attr interpolationmode sample-hold
attr source "count(packetPushed) - count(packetPopped) - count(packetRemoved) - count(packetDropped)"
attr title "queue length, vector"
vector 103 AODVnormal.S[3].wlan[0].mac.queue packetPopped:vector(packetBytes) ETV
attr interpolationmode none
attr title "packet popped, vector(packetBytes)"
vector 104 AODVnormal.S[3].wlan[0].mac.queue queueingTime:vector ETV
attr interpolationmode none
attr source queueingTime(packetPopped)
attr title "queueing times, vector"
attr unit s
vector 105 AODVnormal.S[3].wlan[0].mac sentDownPk:vector(packetBytes) ETV
attr interpolationmode none
attr source packetSentToLower
attr title "packets sent to lower layer, vector(packetBytes)"
vector 106 AODVnormal.N[18].wlan[0].mac rcvdPkFromLl:vector(packetBytes) ETV
attr interpolationmode none
attr source packetReceivedFromLower
attr title "packets received from lower layer, vector(packetBytes)"
vector 107 AODVnormal.N[18].wlan[0].mac passedUpPk:vector(packetBytes) ETV
attr interpolationmode none
attr source packetSentToUpper
attr title "packets passed to higher layer, vector(packetBytes)"
vector 108 AODVnormal.N[18].udp packetReceived:vector(packetBytes) ETV
attr interpolationmode none
attr source packetReceived
attr title "packets received, vector(packetBytes)"
vector 109 AODVnormal.N[18].udp passedUpPk:vector(count) ETV
attr interpolationmode none
attr source packetSentToUpper
attr title "packets passed up, vector(count)"
vector 110 AODVnormal.N[8].wlan[0].mac rcvdPkFromLl:vector(packetBytes) ETV
attr interpolationmode none
attr source packetReceivedFromLower
attr title "packets received from lower layer, vector(packetBytes)"
vector 111 AODVnormal.N[8].wlan[0].mac passedUpPk:vector(packetBytes) ETV
attr interpolationmode none
attr source packetSentToUpper
attr title "packets passed to higher layer, vector(packetBytes)"
vector 112 AODVnormal.N[8].udp packetReceived:vector(packetBytes) ETV
attr interpolationmode none
attr source packetReceived
attr title "packets received, vector(packetBytes)"
vector 113 AODVnormal.N[8].udp passedUpPk:vector(count) ETV
attr interpolationmode none
attr source packetSentToUpper
attr title "packets passed up, vector(count)"
vector 114 AODVnormal.S[0].wlan[0].mac rcvdPkFromLl:vector(packetBytes) ETV
attr interpolationmode none
attr source packetReceivedFromLower
attr title "packets received from lower layer, vector(packetBytes)"
vector 115 AODVnormal.S[0].wlan[0].mac passedUpPk:vector(packetBytes) ETV
attr interpolationmode none
attr source packetSentToUpper
attr title "packets passed to higher layer, vector(packetBytes)"
vector 116 AODVnormal.S[0].udp packetReceived:vector(packetBytes) ETV
attr interpolationmode none
attr source packetReceived
attr title "packets received, vector(packetBytes)"
vector 117 AODVnormal.S[0].udp passedUpPk:vector(count) ETV
attr interpolationmode none
attr source packetSentToUpper
attr title "packets passed up, vector(count)"
vector 118 AODVnormal.N[9].wlan[0].mac rcvdPkFromLl:vector(packetBytes) ETV
attr interpolationmode none
attr source packetReceivedFromLower
attr title "packets received from lower layer, vector(packetBytes)"
vector 119 AODVnormal.N[9].wlan[0].mac passedUpPk:vector(packetBytes) ETV
attr interpolationmode none
attr source packetSentToUpper
attr title "packets passed to higher layer, vector(packetBytes)"
vector 120 AODVnormal.N[9].udp packetReceived:vector(packetBytes) ETV
attr interpolationmode none
attr source packetReceived
attr title "packets received, vector(packetBytes)"
vector 121 AODVnormal.N[9].udp passedUpPk:vector(count) ETV
attr interpolationmode none
attr source packetSentToUpper
attr title "packets passed up, vector(count)"
vector 122 AODVnormal.S[1].wlan[0].mac rcvdPkFromHl:vector(packetBytes) ETV
attr interpolationmode none
attr source packetReceivedFromUpper
attr title "packets received from higher layer, vector(packetBytes)"
vector 123 AODVnormal.S[1].wlan[0].mac.queue packetPushed:vector(packetBytes) ETV
attr interpolationmode none
attr title "packet pushed, vector(packetBytes)"
vector 124 AODVnormal.S[1].wlan[0].mac.queue queueLength:vector ETV
attr interpolationmode sample-hold
attr source "count(packetPushed) - count(packetPopped) - count(packetRemoved) - count(packetDropped)"
attr title "queue length, vector"
vector 125 AODVnormal.S[1].wlan[0].mac.queue packetPopped:vector(packetBytes) ETV
attr interpolationmode none
attr title "packet popped, vector(packetBytes)"
vector 126 AODVnormal.S[1].wlan[0].mac.queue queueingTime:vector ETV
attr interpolationmode none
attr source queueingTime(packetPopped)
attr title "queueing times, vector"
attr unit s
vector 127 AODVnormal.S[1].wlan[0].mac sentDownPk:vector(packetBytes) ETV
attr interpolationmode none
attr source packetSentToLower
attr title "packets sent to lower layer, vector(packetBytes)"
vector 128 AODVnormal.R[0].wlan[0].mac rcvdPkFromLl:vector(packetBytes) ETV
attr interpolationmode none
attr source packetReceivedFromLower
attr title "packets received from lower layer, vector(packetBytes)"
vector 129 AODVnormal.R[0].wlan[0].mac passedUpPk:vector(packetBytes) ETV
attr interpolationmode none
attr source packetSentToUpper
attr title "packets passed to higher layer, vector(packetBytes)"
vector 130 AODVnormal.R[0].udp packetReceived:vector(packetBytes) ETV
attr interpolationmode none
attr source packetReceived
attr title "packets received, vector(packetBytes)"
vector 131 AODVnormal.R[0].udp passedUpPk:vector(count) ETV
attr interpolationmode none
attr source packetSentToUpper
attr title "packets passed up, vector(count)"
vector 132 AODVnormal.N[19].wlan[0].mac rcvdPkFromLl:vector(packetBytes) ETV
attr interpolationmode none
attr source packetReceivedFromLower
attr title "packets received from lower layer, vector(packetBytes)"
vector 133 AODVnormal.N[19].wlan[0].mac passedUpPk:vector(packetBytes) ETV
attr interpolationmode none
attr source packetSentToUpper
attr title "packets passed to higher layer, vector(packetBytes)"
vector 134 AODVnormal.N[19].udp packetReceived:vector(packetBytes) ETV
attr interpolationmode none
attr source packetReceived
attr title "packets received, vector(packetBytes)"
vector 135 AODVnormal.N[19].udp passedUpPk:vector(count) ETV
attr interpolationmode none
attr source packetSentToUpper
attr title "packets passed up, vector(count)"
vector 136 AODVnormal.R[1].wlan[0].mac rcvdPkFromLl:vector(packetBytes) ETV
attr interpolationmode none
attr source packetReceivedFromLower
attr title "packets received from lower layer, vector(packetBytes)"
vector 137 AODVnormal.R[1].wlan[0].mac passedUpPk:vector(packetBytes) ETV
attr interpolationmode none
attr source packetSentToUpper
attr title "packets passed to higher layer, vector(packetBytes)"
vector 138 AODVnormal.R[1].udp packetReceived:vector(packetBytes) ETV
attr interpolationmode none
attr source packetReceived
attr title "packets received, vector(packetBytes)"
vector 139 AODVnormal.R[1].udp passedUpPk:vector(count) ETV
attr interpolationmode none
attr source packetSentToUpper
attr title "packets passed up, vector(count)"
vector 140 AODVnormal.R[1].udp packetSent:vector(packetBytes) ETV
attr interpolationmode none
attr source packetSent
attr title "packets sent, vector(packetBytes)"
vector 141 AODVnormal.R[1].ipv4.arp arpRequestSent:vector(packetBytes) ETV
attr source arpRequestSent
attr title "ARP request sent, vector(packetBytes)"
vector 142 AODVnormal.R[1].wlan[0].mac rcvdPkFromHl:vector(packetBytes) ETV
attr interpolationmode none
attr source packetReceivedFromUpper
attr title "packets received from higher layer, vector(packetBytes)"
vector 143 AODVnormal.R[1].wlan[0].mac.queue packetPushed:vector(packetBytes) ETV
attr interpolationmode none
attr title "packet pushed, vector(packetBytes)"
vector 144 AODVnormal.R[1].wlan[0].mac.queue queueLength:vector ETV
attr interpolationmode sample-hold
attr source "count(packetPushed) - count(packetPopped) - count(packetRemoved) - count(packetDropped)"
attr title "queue length, vector"
vector 145 AODVnormal.R[1].wlan[0].mac.queue packetPopped:vector(packetBytes) ETV
attr interpolationmode none
attr title "packet popped, vector(packetBytes)"
vector 146 AODVnormal.R[1].wlan[0].mac.queue queueingTime:vector ETV
attr interpolationmode none
attr source queueingTime(packetPopped)
attr title "queueing times, vector"
attr unit s
vector 147 AODVnormal.R[1].wlan[0].mac sentDownPk:vector(packetBytes) ETV
attr interpolationmode none
attr source packetSentToLower
attr title "packets sent to lower layer, vector(packetBytes)"
vector 148 AODVnormal.N[0].wlan[0].mac rcvdPkFromLl:vector(packetBytes) ETV
attr interpolationmode none
attr source packetReceivedFromLower
attr title "packets received from lower layer, vector(packetBytes)"
vector 149 AODVnormal.N[0].wlan[0].mac passedUpPk:vector(packetBytes) ETV
attr interpolationmode none
attr source packetSentToUpper
attr title "packets passed to higher layer, vector(packetBytes)"
vector 150 AODVnormal.N[0].udp packetReceived:vector(packetBytes) ETV
attr interpolationmode none
attr source packetReceived
attr title "packets received, vector(packetBytes)"
vector 151 AODVnormal.N[0].udp passedUpPk:vector(count) ETV
attr interpolationmode none
attr source packetSentToUpper
attr title "packets passed up, vector(count)"
vector 152 AODVnormal.N[12].wlan[0].mac rcvdPkFromLl:vector(packetBytes) ETV
attr interpolationmode none
attr source packetReceivedFromLower
attr title "packets received from lower layer, vector(packetBytes)"
vector 153 AODVnormal.N[12].wlan[0].mac passedUpPk:vector(packetBytes) ETV
attr interpolationmode none
attr source packetSentToUpper
attr title "packets passed to higher layer, vector(packetBytes)"
vector 154 AODVnormal.N[12].udp packetReceived:vector(packetBytes) ETV
attr interpolationmode none
attr source packetReceived
attr title "packets received, vector(packetBytes)"
vector 155 AODVnormal.N[12].udp passedUpPk:vector(count) ETV
attr interpolationmode none
attr source packetSentToUpper
attr title "packets passed up, vector(count)"
vector 156 AODVnormal.N[2].wlan[0].mac rcvdPkFromLl:vector(packetBytes) ETV
attr interpolationmode none
attr source packetReceivedFromLower
attr title "packets received from lower layer, vector(packetBytes)"
vector 157 AODVnormal.N[2].wlan[0].mac passedUpPk:vector(packetBytes) ETV
attr interpolationmode none
attr source packetSentToUpper
attr title "packets passed to higher layer, vector(packetBytes)"
vector 158 AODVnormal.N[2].udp packetReceived:vector(packetBytes) ETV
attr interpolationmode none
attr source packetReceived
attr title "packets received, vector(packetBytes)"
vector 159 AODVnormal.N[2].udp passedUpPk:vector(count) ETV
attr interpolationmode none
attr source packetSentToUpper
attr title "packets passed up, vector(count)"
vector 160 AODVnormal.N[6].wlan[0].mac rcvdPkFromLl:vector(packetBytes) ETV
attr interpolationmode none
attr source packetReceivedFromLower
attr title "packets received from lower layer, vector(packetBytes)"
vector 161 AODVnormal.N[6].wlan[0].mac passedUpPk:vector(packetBytes) ETV
attr interpolationmode none
attr source packetSentToUpper
attr title "packets passed to higher layer, vector(packetBytes)"
vector 162 AODVnormal.N[6].udp packetReceived:vector(packetBytes) ETV
attr interpolationmode none
attr source packetReceived
attr title "packets received, vector(packetBytes)"
vector 163 AODVnormal.N[6].udp passedUpPk:vector(count) ETV
attr interpolationmode none
attr source packetSentToUpper
attr title "packets passed up, vector(count)"
vector 164 AODVnormal.N[17].wlan[0].mac rcvdPkFromLl:vector(packetBytes) ETV
attr interpolationmode none
attr source packetReceivedFromLower
attr title "packets received from lower layer, vector(packetBytes)"
vector 165 AODVnormal.N[17].wlan[0].mac passedUpPk:vector(packetBytes) ETV
attr interpolationmode none
attr source packetSentToUpper
attr title "packets passed to higher layer, vector(packetBytes)"
vector 166 AODVnormal.N[17].udp packetReceived:vector(packetBytes) ETV
attr interpolationmode none
attr source packetReceived
attr title "packets received, vector(packetBytes)"
vector 167 AODVnormal.N[17].udp passedUpPk:vector(count) ETV
attr interpolationmode none
attr source packetSentToUpper
attr title "packets passed up, vector(count)"
vector 168 AODVnormal.R[4].wlan[0].mac rcvdPkFromLl:vector(packetBytes) ETV
attr interpolationmode none
attr source packetReceivedFromLower
attr title "packets received from lower layer, vector(packetBytes)"
vector 169 AODVnormal.R[4].wlan[0].mac passedUpPk:vector(packetBytes) ETV
attr interpolationmode none
attr source packetSentToUpper
attr title "packets passed to higher layer, vector(packetBytes)"
vector 170 AODVnormal.R[4].udp packetReceived:vector(packetBytes) ETV
attr interpolationmode none
attr source packetReceived
attr title "packets received, vector(packetBytes)"
vector 171 AODVnormal.R[4].udp passedUpPk:vector(count) ETV
attr interpolationmode none
attr source packetSentToUpper
attr title "packets passed up, vector(count)"
vector 172 AODVnormal.S[4].wlan[0].mac rcvdPkFromHl:vector(packetBytes) ETV
attr interpolationmode none
attr source packetReceivedFromUpper
attr title "packets received from higher layer, vector(packetBytes)"
vector 173 AODVnormal.S[4].wlan[0].mac.queue packetPushed:vector(packetBytes) ETV
attr interpolationmode none
attr title "packet pushed, vector(packetBytes)"
vector 174 AODVnormal.S[4].wlan[0].mac.queue queueLength:vector ETV
attr interpolationmode sample-hold
attr source "count(packetPushed) - count(packetPopped) - count(packetRemoved) - count(packetDropped)"
attr title "queue length, vector"
vector 175 AODVnormal.S[4].wlan[0].mac.queue packetPopped:vector(packetBytes) ETV
attr interpolationmode none
attr title "packet popped, vector(packetBytes)"
vector 176 AODVnormal.S[4].wlan[0].mac.queue queueingTime:vector ETV
attr interpolationmode none
attr source queueingTime(packetPopped)
attr title "queueing times, vector"
attr unit s
vector 177 AODVnormal.S[4].wlan[0].mac sentDownPk:vector(packetBytes) ETV
attr interpolationmode none
attr source packetSentToLower
attr title "packets sent to lower layer, vector(packetBytes)"
vector 178 AODVnormal.S[1].wlan[0].mac rcvdPkFromLl:vector(packetBytes) ETV
attr interpolationmode none
attr source packetReceivedFromLower
attr title "packets received from lower layer, vector(packetBytes)"
vector 179 AODVnormal.S[1].wlan[0].mac passedUpPk:vector(packetBytes) ETV
attr interpolationmode none
attr source packetSentToUpper
attr title "packets passed to higher layer, vector(packetBytes)"
vector 180 AODVnormal.S[1].ipv4.arp arpReplySent:vector(packetBytes) ETV
attr source arpReplySent
attr title "ARP replies sent, vector(packetBytes)"
vector 181 AODVnormal.N[1].wlan[0].mac rcvdPkFromLl:vector(packetBytes) ETV
attr interpolationmode none
attr source packetReceivedFromLower
attr title "packets received from lower layer, vector(packetBytes)"
vector 182 AODVnormal.N[1].wlan[0].mac passedUpPk:vector(packetBytes) ETV
attr interpolationmode none
attr source packetSentToUpper
attr title "packets passed to higher layer, vector(packetBytes)"
vector 183 AODVnormal.N[10].wlan[0].mac rcvdPkFromLl:vector(packetBytes) ETV
attr interpolationmode none
attr source packetReceivedFromLower
attr title "packets received from lower layer, vector(packetBytes)"
vector 184 AODVnormal.N[10].wlan[0].mac passedUpPk:vector(packetBytes) ETV
attr interpolationmode none
attr source packetSentToUpper
attr title "packets passed to higher layer, vector(packetBytes)"
vector 185 AODVnormal.N[19].udp packetSent:vector(packetBytes) ETV
attr interpolationmode none
attr source packetSent
attr title "packets sent, vector(packetBytes)"
vector 186 AODVnormal.N[19].wlan[0].mac rcvdPkFromHl:vector(packetBytes) ETV
attr interpolationmode none
attr source packetReceivedFromUpper
attr title "packets received from higher layer, vector(packetBytes)"
vector 187 AODVnormal.N[19].wlan[0].mac.queue packetPushed:vector(packetBytes) ETV
attr interpolationmode none
attr title "packet pushed, vector(packetBytes)"
vector 188 AODVnormal.N[19].wlan[0].mac.queue queueLength:vector ETV
attr interpolationmode sample-hold
attr source "count(packetPushed) - count(packetPopped) - count(packetRemoved) - count(packetDropped)"
attr title "queue length, vector"
vector 189 AODVnormal.N[19].wlan[0].mac.queue packetPopped:vector(packetBytes) ETV
attr interpolationmode none
attr title "packet popped, vector(packetBytes)"
vector 190 AODVnormal.N[19].wlan[0].mac.queue queueingTime:vector ETV
attr interpolationmode none
attr source queueingTime(packetPopped)
attr title "queueing times, vector"
attr unit s
vector 191 AODVnormal.N[19].wlan[0].mac sentDownPk:vector(packetBytes) ETV
attr interpolationmode none
attr source packetSentToLower
attr title "packets sent to lower layer, vector(packetBytes)"
vector 192 AODVnormal.N[7].wlan[0].mac rcvdPkFromLl:vector(packetBytes) ETV
attr interpolationmode none
attr source packetReceivedFromLower
attr title "packets received from lower layer, vector(packetBytes)"
vector 193 AODVnormal.N[7].wlan[0].mac passedUpPk:vector(packetBytes) ETV
attr interpolationmode none
attr source packetSentToUpper
attr title "packets passed to higher layer, vector(packetBytes)"
vector 194 AODVnormal.N[7].udp packetReceived:vector(packetBytes) ETV
attr interpolationmode none
attr source packetReceived
attr title "packets received, vector(packetBytes)"
vector 195 AODVnormal.N[7].udp passedUpPk:vector(count) ETV
attr interpolationmode none
attr source packetSentToUpper
attr title "packets passed up, vector(count)"
vector 196 AODVnormal.R[4].udp packetSent:vector(packetBytes) ETV
attr interpolationmode none
attr source packetSent
attr title "packets sent, vector(packetBytes)"
vector 197 AODVnormal.R[4].ipv4.arp arpRequestSent:vector(packetBytes) ETV
attr source arpRequestSent
attr title "ARP request sent, vector(packetBytes)"
vector 198 AODVnormal.R[4].wlan[0].mac rcvdPkFromHl:vector(packetBytes) ETV
attr interpolationmode none
attr source packetReceivedFromUpper
attr title "packets received from higher layer, vector(packetBytes)"
vector 199 AODVnormal.R[4].wlan[0].mac.queue packetPushed:vector(packetBytes) ETV
attr interpolationmode none
attr title "packet pushed, vector(packetBytes)"
vector 200 AODVnormal.R[4].wlan[0].mac.queue queueLength:vector ETV
attr interpolationmode sample-hold
attr source "count(packetPushed) - count(packetPopped) - count(packetRemoved) - count(packetDropped)"
attr title "queue length, vector"
vector 201 AODVnormal.R[4].wlan[0].mac.queue packetPopped:vector(packetBytes) ETV
attr interpolationmode none
attr title "packet popped, vector(packetBytes)"
vector 202 AODVnormal.R[4].wlan[0].mac.queue queueingTime:vector ETV
attr interpolationmode none
attr source queueingTime(packetPopped)
attr title "queueing times, vector"
attr unit s
vector 203 AODVnormal.R[4].wlan[0].mac sentDownPk:vector(packetBytes) ETV
attr interpolationmode none
attr source packetSentToLower
attr title "packets sent to lower layer, vector(packetBytes)"
vector 204 AODVnormal.S[2].wlan[0].mac rcvdPkFromLl:vector(packetBytes) ETV
attr interpolationmode none
attr source packetReceivedFromLower
attr title "packets received from lower layer, vector(packetBytes)"
vector 205 AODVnormal.S[2].wlan[0].mac passedUpPk:vector(packetBytes) ETV
attr interpolationmode none
attr source packetSentToUpper
attr title "packets passed to higher layer, vector(packetBytes)"
vector 206 AODVnormal.S[2].udp packetReceived:vector(packetBytes) ETV
attr interpolationmode none
attr source packetReceived
attr title "packets received, vector(packetBytes)"
vector 207 AODVnormal.S[2].udp passedUpPk:vector(count) ETV
attr interpolationmode none
attr source packetSentToUpper
attr title "packets passed up, vector(count)"
vector 208 AODVnormal.N[13].wlan[0].mac rcvdPkFromLl:vector(packetBytes) ETV
attr interpolationmode none
attr source packetReceivedFromLower
attr title "packets received from lower layer, vector(packetBytes)"
vector 209 AODVnormal.N[13].wlan[0].mac passedUpPk:vector(packetBytes) ETV
attr interpolationmode none
attr source packetSentToUpper
attr title "packets passed to higher layer, vector(packetBytes)"
vector 210 AODVnormal.N[13].udp packetReceived:vector(packetBytes) ETV
attr interpolationmode none
attr source packetReceived
attr title "packets received, vector(packetBytes)"
vector 211 AODVnormal.N[13].udp passedUpPk:vector(count) ETV
attr interpolationmode none
attr source packetSentToUpper
attr title "packets passed up, vector(count)"
vector 212 AODVnormal.N[16].wlan[0].mac rcvdPkFromLl:vector(packetBytes) ETV
attr interpolationmode none
attr source packetReceivedFromLower
attr title "packets received from lower layer, vector(packetBytes)"
vector 213 AODVnormal.N[16].wlan[0].mac passedUpPk:vector(packetBytes) ETV
attr interpolationmode none
attr source packetSentToUpper
attr title "packets passed to higher layer, vector(packetBytes)"
vector 214 AODVnormal.N[16].udp packetReceived:vector(packetBytes) ETV
attr interpolationmode none
attr source packetReceived
attr title "packets received, vector(packetBytes)"
vector 215 AODVnormal.N[16].udp passedUpPk:vector(count) ETV
attr interpolationmode none
attr source packetSentToUpper
attr title "packets passed up, vector(count)"
vector 216 AODVnormal.R[2].wlan[0].mac rcvdPkFromLl:vector(packetBytes) ETV
attr interpolationmode none
attr source packetReceivedFromLower
attr title "packets received from lower layer, vector(packetBytes)"
vector 217 AODVnormal.R[2].wlan[0].mac passedUpPk:vector(packetBytes) ETV
attr interpolationmode none
attr source packetSentToUpper
attr title "packets passed to higher layer, vector(packetBytes)"
vector 218 AODVnormal.R[2].udp packetReceived:vector(packetBytes) ETV
attr interpolationmode none
attr source packetReceived
attr title "packets received, vector(packetBytes)"
vector 219 AODVnormal.R[2].udp passedUpPk:vector(count) ETV
attr interpolationmode none
attr source packetSentToUpper
attr title "packets passed up, vector(count)"
vector 220 AODVnormal.N[4].wlan[0].mac rcvdPkFromLl:vector(packetBytes) ETV
attr interpolationmode none
attr source packetReceivedFromLower
attr title "packets received from lower layer, vector(packetBytes)"
vector 221 AODVnormal.N[4].wlan[0].mac passedUpPk:vector(packetBytes) ETV
attr interpolationmode none
attr source packetSentToUpper
attr title "packets passed to higher layer, vector(packetBytes)"
vector 222 AODVnormal.N[4].udp packetReceived:vector(packetBytes) ETV
attr interpolationmode none
attr source packetReceived
attr title "packets received, vector(packetBytes)"
vector 223 AODVnormal.N[4].udp passedUpPk:vector(count) ETV
attr interpolationmode none
attr source packetSentToUpper
attr title "packets passed up, vector(count)"
vector 224 AODVnormal.R[0].wlan[0].mac packetDropNotAddressedToUs:vector(packetBytes) ETV
attr interpolationmode none
attr source packetDropReasonIsNotAddressedToUs(packetDropped)
attr title "packet drop: not addressed to us, vector(packetBytes)"
vector 225 AODVnormal.N[19].wlan[0].mac packetDropNotAddressedToUs:vector(packetBytes) ETV
attr interpolationmode none
attr source packetDropReasonIsNotAddressedToUs(packetDropped)
attr title "packet drop: not addressed to us, vector(packetBytes)"
vector 226 AODVnormal.N[0].wlan[0].mac packetDropNotAddressedToUs:vector(packetBytes) ETV
attr interpolationmode none
attr source packetDropReasonIsNotAddressedToUs(packetDropped)
attr title "packet drop: not addressed to us, vector(packetBytes)"
vector 227 AODVnormal.N[12].wlan[0].mac packetDropNotAddressedToUs:vector(packetBytes) ETV
attr interpolationmode none
attr source packetDropReasonIsNotAddressedToUs(packetDropped)
attr title "packet drop: not addressed to us, vector(packetBytes)"
vector 228 AODVnormal.N[2].wlan[0].mac packetDropNotAddressedToUs:vector(packetBytes) ETV
attr interpolationmode none
attr source packetDropReasonIsNotAddressedToUs(packetDropped)
attr title "packet drop: not addressed to us, vector(packetBytes)"
vector 229 AODVnormal.N[17].wlan[0].mac packetDropNotAddressedToUs:vector(packetBytes) ETV
attr interpolationmode none
attr source packetDropReasonIsNotAddressedToUs(packetDropped)
attr title "packet drop: not addressed to us, vector(packetBytes)"
vector 230 AODVnormal.S[1].udp packetReceived:vector(packetBytes) ETV
attr interpolationmode none
attr source packetReceived
attr title "packets received, vector(packetBytes)"
vector 231 AODVnormal.S[1].udp passedUpPk:vector(count) ETV
attr interpolationmode none
attr source packetSentToUpper
attr title "packets passed up, vector(count)"
vector 232 AODVnormal.S[4].wlan[0].mac rcvdPkFromLl:vector(packetBytes) ETV
attr interpolationmode none
attr source packetReceivedFromLower
attr title "packets received from lower layer, vector(packetBytes)"
vector 233 AODVnormal.S[4].wlan[0].mac passedUpPk:vector(packetBytes) ETV
attr interpolationmode none
attr source packetSentToUpper
attr title "packets passed to higher layer, vector(packetBytes)"
vector 234 AODVnormal.S[4].ipv4.arp arpReplySent:vector(packetBytes) ETV
attr source arpReplySent
attr title "ARP replies sent, vector(packetBytes)"
vector 235 AODVnormal.N[4].udp packetSent:vector(packetBytes) ETV
attr interpolationmode none
attr source packetSent
attr title "packets sent, vector(packetBytes)"
vector 236 AODVnormal.N[4].wlan[0].mac rcvdPkFromHl:vector(packetBytes) ETV
attr interpolationmode none
attr source packetReceivedFromUpper
attr title "packets received from higher layer, vector(packetBytes)"
vector 237 AODVnormal.N[4].wlan[0].mac.queue packetPushed:vector(packetBytes) ETV
attr interpolationmode none
attr title "packet pushed, vector(packetBytes)"
vector 238 AODVnormal.N[4].wlan[0].mac.queue queueLength:vector ETV
attr interpolationmode sample-hold
attr source "count(packetPushed) - count(packetPopped) - count(packetRemoved) - count(packetDropped)"
attr title "queue length, vector"
vector 239 AODVnormal.N[4].wlan[0].mac.queue packetPopped:vector(packetBytes) ETV
attr interpolationmode none
attr title "packet popped, vector(packetBytes)"
vector 240 AODVnormal.N[4].wlan[0].mac.queue queueingTime:vector ETV
attr interpolationmode none
attr source queueingTime(packetPopped)
attr title "queueing times, vector"
attr unit s
vector 241 AODVnormal.N[4].wlan[0].mac sentDownPk:vector(packetBytes) ETV
attr interpolationmode none
attr source packetSentToLower
attr title "packets sent to lower layer, vector(packetBytes)"
vector 242 AODVnormal.N[1].wlan[0].mac packetDropNotAddressedToUs:vector(packetBytes) ETV
attr interpolationmode none
attr source packetDropReasonIsNotAddressedToUs(packetDropped)
attr title "packet drop: not addressed to us, vector(packetBytes)"
vector 243 AODVnormal.N[10].wlan[0].mac packetDropNotAddressedToUs:vector(packetBytes) ETV
attr interpolationmode none
attr source packetDropReasonIsNotAddressedToUs(packetDropped)
attr title "packet drop: not addressed to us, vector(packetBytes)"
vector 244 AODVnormal.S[0].wlan[0].mac packetDropNotAddressedToUs:vector(packetBytes) ETV
attr interpolationmode none
attr source packetDropReasonIsNotAddressedToUs(packetDropped)
attr title "packet drop: not addressed to us, vector(packetBytes)"
vector 245 AODVnormal.N[9].udp packetSent:vector(packetBytes) ETV
attr interpolationmode none
attr source packetSent
attr title "packets sent, vector(packetBytes)"
vector 246 AODVnormal.N[9].wlan[0].mac rcvdPkFromHl:vector(packetBytes) ETV
attr interpolationmode none
attr source packetReceivedFromUpper
attr title "packets received from higher layer, vector(packetBytes)"
vector 247 AODVnormal.N[9].wlan[0].mac.queue packetPushed:vector(packetBytes) ETV
attr interpolationmode none
attr title "packet pushed, vector(packetBytes)"
vector 248 AODVnormal.N[9].wlan[0].mac.queue queueLength:vector ETV
attr interpolationmode sample-hold
attr source "count(packetPushed) - count(packetPopped) - count(packetRemoved) - count(packetDropped)"
attr title "queue length, vector"
vector 249 AODVnormal.N[9].wlan[0].mac.queue packetPopped:vector(packetBytes) ETV
attr interpolationmode none
attr title "packet popped, vector(packetBytes)"
vector 250 AODVnormal.N[9].wlan[0].mac.queue queueingTime:vector ETV
attr interpolationmode none
attr source queueingTime(packetPopped)
attr title "queueing times, vector"
attr unit s
vector 251 AODVnormal.N[9].wlan[0].mac sentDownPk:vector(packetBytes) ETV
attr interpolationmode none
attr source packetSentToLower
attr title "packets sent to lower layer, vector(packetBytes)"
vector 252 AODVnormal.N[7].wlan[0].mac packetDropNotAddressedToUs:vector(packetBytes) ETV
attr interpolationmode none
attr source packetDropReasonIsNotAddressedToUs(packetDropped)
attr title "packet drop: not addressed to us, vector(packetBytes)"
vector 253 AODVnormal.S[2].wlan[0].mac packetDropNotAddressedToUs:vector(packetBytes) ETV
attr interpolationmode none
attr source packetDropReasonIsNotAddressedToUs(packetDropped)
attr title "packet drop: not addressed to us, vector(packetBytes)"
vector 254 AODVnormal.N[6].wlan[0].mac packetDropNotAddressedToUs:vector(packetBytes) ETV
attr interpolationmode none
attr source packetDropReasonIsNotAddressedToUs(packetDropped)
attr title "packet drop: not addressed to us, vector(packetBytes)"
vector 255 AODVnormal.N[13].wlan[0].mac packetDropNotAddressedToUs:vector(packetBytes) ETV
attr interpolationmode none
attr source packetDropReasonIsNotAddressedToUs(packetDropped)
attr title "packet drop: not addressed to us, vector(packetBytes)"
vector 256 AODVnormal.N[16].wlan[0].mac packetDropNotAddressedToUs:vector(packetBytes) ETV
attr interpolationmode none
attr source packetDropReasonIsNotAddressedToUs(packetDropped)
attr title "packet drop: not addressed to us, vector(packetBytes)"
vector 257 AODVnormal.R[2].wlan[0].mac packetDropNotAddressedToUs:vector(packetBytes) ETV
attr interpolationmode none
attr source packetDropReasonIsNotAddressedToUs(packetDropped)
attr title "packet drop: not addressed to us, vector(packetBytes)"
vector 258 AODVnormal.N[4].wlan[0].mac packetDropNotAddressedToUs:vector(packetBytes) ETV
attr interpolationmode none
attr source packetDropReasonIsNotAddressedToUs(packetDropped)
attr title "packet drop: not addressed to us, vector(packetBytes)"
vector 259 AODVnormal.N[15].wlan[0].mac rcvdPkFromLl:vector(packetBytes) ETV
attr interpolationmode none
attr source packetReceivedFromLower
attr title "packets received from lower layer, vector(packetBytes)"
vector 260 AODVnormal.N[15].wlan[0].mac passedUpPk:vector(packetBytes) ETV
attr interpolationmode none
attr source packetSentToUpper
attr title "packets passed to higher layer, vector(packetBytes)"
vector 261 AODVnormal.N[15].udp packetReceived:vector(packetBytes) ETV
attr interpolationmode none
attr source packetReceived
attr title "packets received, vector(packetBytes)"
vector 262 AODVnormal.N[15].udp passedUpPk:vector(count) ETV
attr interpolationmode none
attr source packetSentToUpper
attr title "packets passed up, vector(count)"
vector 263 AODVnormal.S[4].udp packetReceived:vector(packetBytes) ETV
attr interpolationmode none
attr source packetReceived
attr title "packets received, vector(packetBytes)"
vector 264 AODVnormal.S[4].udp passedUpPk:vector(count) ETV
attr interpolationmode none
attr source packetSentToUpper
attr title "packets passed up, vector(count)"
vector 265 AODVnormal.S[2].wlan[0].mac rcvdPkFromHl:vector(packetBytes) ETV
attr interpolationmode none
attr source packetReceivedFromUpper
attr title "packets received from higher layer, vector(packetBytes)"
vector 266 AODVnormal.S[2].wlan[0].mac.queue packetPushed:vector(packetBytes) ETV
attr interpolationmode none
attr title "packet pushed, vector(packetBytes)"
vector 267 AODVnormal.S[2].wlan[0].mac.queue queueLength:vector ETV
attr interpolationmode sample-hold
attr source "count(packetPushed) - count(packetPopped) - count(packetRemoved) - count(packetDropped)"
attr title "queue length, vector"
vector 268 AODVnormal.S[2].wlan[0].mac.queue packetPopped:vector(packetBytes) ETV
attr interpolationmode none
attr title "packet popped, vector(packetBytes)"
vector 269 AODVnormal.S[2].wlan[0].mac.queue queueingTime:vector ETV
attr interpolationmode none
attr source queueingTime(packetPopped)
attr title "queueing times, vector"
attr unit s
vector 270 AODVnormal.S[2].wlan[0].mac sentDownPk:vector(packetBytes) ETV
attr interpolationmode none
attr source packetSentToLower
attr title "packets sent to lower layer, vector(packetBytes)"
vector 271 AODVnormal.S[0].wlan[0].mac rcvdPkFromHl:vector(packetBytes) ETV
attr interpolationmode none
attr source packetReceivedFromUpper
attr title "packets received from higher layer, vector(packetBytes)"
vector 272 AODVnormal.S[0].wlan[0].mac.queue packetPushed:vector(packetBytes) ETV
attr interpolationmode none
attr title "packet pushed, vector(packetBytes)"
vector 273 AODVnormal.S[0].wlan[0].mac.queue queueLength:vector ETV
attr interpolationmode sample-hold
attr source "count(packetPushed) - count(packetPopped) - count(packetRemoved) - count(packetDropped)"
attr title "queue length, vector"
vector 274 AODVnormal.S[0].wlan[0].mac.queue packetPopped:vector(packetBytes) ETV
attr interpolationmode none
attr title "packet popped, vector(packetBytes)"
vector 275 AODVnormal.S[0].wlan[0].mac.queue queueingTime:vector ETV
attr interpolationmode none
attr source queueingTime(packetPopped)
attr title "queueing times, vector"
attr unit s
vector 276 AODVnormal.S[0].wlan[0].mac sentDownPk:vector(packetBytes) ETV
attr interpolationmode none
attr source packetSentToLower
attr title "packets sent to lower layer, vector(packetBytes)"
vector 277 AODVnormal.S[3].wlan[0].mac rcvdPkFromLl:vector(packetBytes) ETV
attr interpolationmode none
attr source packetReceivedFromLower
attr title "packets received from lower layer, vector(packetBytes)"
vector 278 AODVnormal.S[3].wlan[0].mac passedUpPk:vector(packetBytes) ETV
attr interpolationmode none
attr source packetSentToUpper
attr title "packets passed to higher layer, vector(packetBytes)"
vector 279 AODVnormal.S[3].udp packetReceived:vector(packetBytes) ETV
attr interpolationmode none
attr source packetReceived
attr title "packets received, vector(packetBytes)"
vector 280 AODVnormal.S[3].udp passedUpPk:vector(count) ETV
attr interpolationmode none
attr source packetSentToUpper
attr title "packets passed up, vector(count)"
vector 281 AODVnormal.N[10].udp packetReceived:vector(packetBytes) ETV
attr interpolationmode none
attr source packetReceived
attr title "packets received, vector(packetBytes)"
vector 282 AODVnormal.N[10].udp passedUpPk:vector(count) ETV
attr interpolationmode none
attr source packetSentToUpper
attr title "packets passed up, vector(count)"
vector 283 AODVnormal.N[9].wlan[0].mac packetDropNotAddressedToUs:vector(packetBytes) ETV
attr interpolationmode none
attr source packetDropReasonIsNotAddressedToUs(packetDropped)
attr title "packet drop: not addressed to us, vector(packetBytes)"
vector 284 AODVnormal.S[1].wlan[0].mac packetDropNotAddressedToUs:vector(packetBytes) ETV
attr interpolationmode none
attr source packetDropReasonIsNotAddressedToUs(packetDropped)
attr title "packet drop: not addressed to us, vector(packetBytes)"
vector 285 AODVnormal.N[8].udp packetSent:vector(packetBytes) ETV
attr interpolationmode none
attr source packetSent
attr title "packets sent, vector(packetBytes)"
vector 286 AODVnormal.N[8].wlan[0].mac rcvdPkFromHl:vector(packetBytes) ETV
attr interpolationmode none
attr source packetReceivedFromUpper
attr title "packets received from higher layer, vector(packetBytes)"
vector 287 AODVnormal.N[8].wlan[0].mac.queue packetPushed:vector(packetBytes) ETV
attr interpolationmode none
attr title "packet pushed, vector(packetBytes)"
vector 288 AODVnormal.N[8].wlan[0].mac.queue queueLength:vector ETV
attr interpolationmode sample-hold
attr source "count(packetPushed) - count(packetPopped) - count(packetRemoved) - count(packetDropped)"
attr title "queue length, vector"
vector 289 AODVnormal.N[8].wlan[0].mac.queue packetPopped:vector(packetBytes) ETV
attr interpolationmode none
attr title "packet popped, vector(packetBytes)"
vector 290 AODVnormal.N[8].wlan[0].mac.queue queueingTime:vector ETV
attr interpolationmode none
attr source queueingTime(packetPopped)
attr title "queueing times, vector"
attr unit s
vector 291 AODVnormal.N[8].wlan[0].mac sentDownPk:vector(packetBytes) ETV
attr interpolationmode none
attr source packetSentToLower
attr title "packets sent to lower layer, vector(packetBytes)"
vector 292 AODVnormal.N[12].udp packetSent:vector(packetBytes) ETV
attr interpolationmode none
attr source packetSent
attr title "packets sent, vector(packetBytes)"
vector 293 AODVnormal.N[12].wlan[0].mac rcvdPkFromHl:vector(packetBytes) ETV
attr interpolationmode none
attr source packetReceivedFromUpper
attr title "packets received from higher layer, vector(packetBytes)"
vector 294 AODVnormal.N[12].wlan[0].mac.queue packetPushed:vector(packetBytes) ETV
attr interpolationmode none
attr title "packet pushed, vector(packetBytes)"
vector 295 AODVnormal.N[12].wlan[0].mac.queue queueLength:vector ETV
attr interpolationmode sample-hold
attr source "count(packetPushed) - count(packetPopped) - count(packetRemoved) - count(packetDropped)"
attr title "queue length, vector"
vector 296 AODVnormal.N[12].wlan[0].mac.queue packetPopped:vector(packetBytes) ETV
attr interpolationmode none
attr title "packet popped, vector(packetBytes)"
vector 297 AODVnormal.N[12].wlan[0].mac.queue queueingTime:vector ETV
attr interpolationmode none
attr source queueingTime(packetPopped)
attr title "queueing times, vector"
attr unit s
vector 298 AODVnormal.N[12].wlan[0].mac sentDownPk:vector(packetBytes) ETV
attr interpolationmode none
attr source packetSentToLower
attr title "packets sent to lower layer, vector(packetBytes)"
vector 299 AODVnormal.R[2].udp packetSent:vector(packetBytes) ETV
attr interpolationmode none
attr source packetSent
attr title "packets sent, vector(packetBytes)"
vector 300 AODVnormal.R[2].ipv4.arp arpRequestSent:vector(packetBytes) ETV
attr source arpRequestSent
attr title "ARP request sent, vector(packetBytes)"
vector 301 AODVnormal.R[2].wlan[0].mac rcvdPkFromHl:vector(packetBytes) ETV
attr interpolationmode none
attr source packetReceivedFromUpper
attr title "packets received from higher layer, vector(packetBytes)"
vector 302 AODVnormal.R[2].wlan[0].mac.queue packetPushed:vector(packetBytes) ETV
attr interpolationmode none
attr title "packet pushed, vector(packetBytes)"
vector 303 AODVnormal.R[2].wlan[0].mac.queue queueLength:vector ETV
attr interpolationmode sample-hold
attr source "count(packetPushed) - count(packetPopped) - count(packetRemoved) - count(packetDropped)"
attr title "queue length, vector"
vector 304 AODVnormal.R[2].wlan[0].mac.queue packetPopped:vector(packetBytes) ETV
attr interpolationmode none
attr title "packet popped, vector(packetBytes)"
vector 305 AODVnormal.R[2].wlan[0].mac.queue queueingTime:vector ETV
attr interpolationmode none
attr source queueingTime(packetPopped)
attr title "queueing times, vector"
attr unit s
vector 306 AODVnormal.R[2].wlan[0].mac sentDownPk:vector(packetBytes) ETV
attr interpolationmode none
attr source packetSentToLower
attr title "packets sent to lower layer, vector(packetBytes)"
vector 307 AODVnormal.N[11].wlan[0].mac rcvdPkFromLl:vector(packetBytes) ETV
attr interpolationmode none
attr source packetReceivedFromLower
attr title "packets received from lower layer, vector(packetBytes)"
vector 308 AODVnormal.N[11].wlan[0].mac passedUpPk:vector(packetBytes) ETV
attr interpolationmode none
attr source packetSentToUpper
attr title "packets passed to higher layer, vector(packetBytes)"
vector 309 AODVnormal.N[11].udp packetReceived:vector(packetBytes) ETV
attr interpolationmode none
attr source packetReceived
attr title "packets received, vector(packetBytes)"
vector 310 AODVnormal.N[11].udp passedUpPk:vector(count) ETV
attr interpolationmode none
attr source packetSentToUpper
attr title "packets passed up, vector(count)"
vector 311 AODVnormal.S[2].ipv4.arp arpReplySent:vector(packetBytes) ETV
attr source arpReplySent
attr title "ARP replies sent, vector(packetBytes)"
vector 312 AODVnormal.N[5].wlan[0].mac rcvdPkFromLl:vector(packetBytes) ETV
attr interpolationmode none
attr source packetReceivedFromLower
attr title "packets received from lower layer, vector(packetBytes)"
vector 313 AODVnormal.N[5].wlan[0].mac passedUpPk:vector(packetBytes) ETV
attr interpolationmode none
attr source packetSentToUpper
attr title "packets passed to higher layer, vector(packetBytes)"
vector 314 AODVnormal.N[14].wlan[0].mac rcvdPkFromLl:vector(packetBytes) ETV
attr interpolationmode none
attr source packetReceivedFromLower
attr title "packets received from lower layer, vector(packetBytes)"
vector 315 AODVnormal.N[14].wlan[0].mac passedUpPk:vector(packetBytes) ETV
attr interpolationmode none
attr source packetSentToUpper
attr title "packets passed to higher layer, vector(packetBytes)"
vector 316 AODVnormal.N[2].udp packetSent:vector(packetBytes) ETV
attr interpolationmode none
attr source packetSent
attr title "packets sent, vector(packetBytes)"
vector 317 AODVnormal.N[2].wlan[0].mac rcvdPkFromHl:vector(packetBytes) ETV
attr interpolationmode none
attr source packetReceivedFromUpper
attr title "packets received from higher layer, vector(packetBytes)"
vector 318 AODVnormal.N[2].wlan[0].mac.queue packetPushed:vector(packetBytes) ETV
attr interpolationmode none
attr title "packet pushed, vector(packetBytes)"
vector 319 AODVnormal.N[2].wlan[0].mac.queue queueLength:vector ETV
attr interpolationmode sample-hold
attr source "count(packetPushed) - count(packetPopped) - count(packetRemoved) - count(packetDropped)"
attr title "queue length, vector"
vector 320 AODVnormal.N[2].wlan[0].mac.queue packetPopped:vector(packetBytes) ETV
attr interpolationmode none
attr title "packet popped, vector(packetBytes)"
vector 321 AODVnormal.N[2].wlan[0].mac.queue queueingTime:vector ETV
attr interpolationmode none
attr source queueingTime(packetPopped)
attr title "queueing times, vector"
attr unit s
vector 322 AODVnormal.N[2].wlan[0].mac sentDownPk:vector(packetBytes) ETV
attr interpolationmode none
attr source packetSentToLower
attr title "packets sent to lower layer, vector(packetBytes)"
vector 323 AODVnormal.S[4].wlan[0].mac packetDropNotAddressedToUs:vector(packetBytes) ETV
attr interpolationmode none
attr source packetDropReasonIsNotAddressedToUs(packetDropped)
attr title "packet drop: not addressed to us, vector(packetBytes)"
vector 324 AODVnormal.N[11].wlan[0].mac packetDropNotAddressedToUs:vector(packetBytes) ETV
attr interpolationmode none
attr source packetDropReasonIsNotAddressedToUs(packetDropped)
attr title "packet drop: not addressed to us, vector(packetBytes)"
vector 325 AODVnormal.R[4].wlan[0].mac packetDropNotAddressedToUs:vector(packetBytes) ETV
attr interpolationmode none
attr source packetDropReasonIsNotAddressedToUs(packetDropped)
attr title "packet drop: not addressed to us, vector(packetBytes)"
vector 326 AODVnormal.N[1].udp packetReceived:vector(packetBytes) ETV
attr interpolationmode none
attr source packetReceived
attr title "packets received, vector(packetBytes)"
vector 327 AODVnormal.N[1].udp passedUpPk:vector(count) ETV
attr interpolationmode none
attr source packetSentToUpper
attr title "packets passed up, vector(count)"
vector 328 AODVnormal.N[3].wlan[0].mac rcvdPkFromLl:vector(packetBytes) ETV
attr interpolationmode none
attr source packetReceivedFromLower
attr title "packets received from lower layer, vector(packetBytes)"
vector 329 AODVnormal.N[3].wlan[0].mac passedUpPk:vector(packetBytes) ETV
attr interpolationmode none
attr source packetSentToUpper
attr title "packets passed to higher layer, vector(packetBytes)"
vector 330 AODVnormal.N[3].udp packetReceived:vector(packetBytes) ETV
attr interpolationmode none
attr source packetReceived
attr title "packets received, vector(packetBytes)"
vector 331 AODVnormal.N[3].udp passedUpPk:vector(count) ETV
attr interpolationmode none
attr source packetSentToUpper
attr title "packets passed up, vector(count)"
vector 332 AODVnormal.N[5].wlan[0].mac packetDropNotAddressedToUs:vector(packetBytes) ETV
attr interpolationmode none
attr source packetDropReasonIsNotAddressedToUs(packetDropped)
attr title "packet drop: not addressed to us, vector(packetBytes)"
vector 333 AODVnormal.N[14].wlan[0].mac packetDropNotAddressedToUs:vector(packetBytes) ETV
attr interpolationmode none
attr source packetDropReasonIsNotAddressedToUs(packetDropped)
attr title "packet drop: not addressed to us, vector(packetBytes)"
vector 334 AODVnormal.N[13].udp packetSent:vector(packetBytes) ETV
attr interpolationmode none
attr source packetSent
attr title "packets sent, vector(packetBytes)"
vector 335 AODVnormal.N[13].wlan[0].mac rcvdPkFromHl:vector(packetBytes) ETV
attr interpolationmode none
attr source packetReceivedFromUpper
attr title "packets received from higher layer, vector(packetBytes)"
vector 336 AODVnormal.N[13].wlan[0].mac.queue packetPushed:vector(packetBytes) ETV
attr interpolationmode none
attr title "packet pushed, vector(packetBytes)"
vector 337 AODVnormal.N[13].wlan[0].mac.queue queueLength:vector ETV
attr interpolationmode sample-hold
attr source "count(packetPushed) - count(packetPopped) - count(packetRemoved) - count(packetDropped)"
attr title "queue length, vector"
vector 338 AODVnormal.N[13].wlan[0].mac.queue packetPopped:vector(packetBytes) ETV
attr interpolationmode none
attr title "packet popped, vector(packetBytes)"
vector 339 AODVnormal.N[13].wlan[0].mac.queue queueingTime:vector ETV
attr interpolationmode none
attr source queueingTime(packetPopped)
attr title "queueing times, vector"
attr unit s
vector 340 AODVnormal.N[13].wlan[0].mac sentDownPk:vector(packetBytes) ETV
attr interpolationmode none
attr source packetSentToLower
attr title "packets sent to lower layer, vector(packetBytes)"
vector 341 AODVnormal.N[6].udp packetSent:vector(packetBytes) ETV
attr interpolationmode none
attr source packetSent
attr title "packets sent, vector(packetBytes)"
vector 342 AODVnormal.N[6].wlan[0].mac rcvdPkFromHl:vector(packetBytes) ETV
attr interpolationmode none
attr source packetReceivedFromUpper
attr title "packets received from higher layer, vector(packetBytes)"
vector 343 AODVnormal.N[6].wlan[0].mac.queue packetPushed:vector(packetBytes) ETV
attr interpolationmode none
attr title "packet pushed, vector(packetBytes)"
vector 344 AODVnormal.N[6].wlan[0].mac.queue queueLength:vector ETV
attr interpolationmode sample-hold
attr source "count(packetPushed) - count(packetPopped) - count(packetRemoved) - count(packetDropped)"
attr title "queue length, vector"
vector 345 AODVnormal.N[6].wlan[0].mac.queue packetPopped:vector(packetBytes) ETV
attr interpolationmode none
attr title "packet popped, vector(packetBytes)"
vector 346 AODVnormal.N[6].wlan[0].mac.queue queueingTime:vector ETV
attr interpolationmode none
attr source queueingTime(packetPopped)
attr title "queueing times, vector"
attr unit s
vector 347 AODVnormal.N[6].wlan[0].mac sentDownPk:vector(packetBytes) ETV
attr interpolationmode none
attr source packetSentToLower
attr title "packets sent to lower layer, vector(packetBytes)"
vector 348 AODVnormal.N[18].udp packetSent:vector(packetBytes) ETV
attr interpolationmode none
attr source packetSent
attr title "packets sent, vector(packetBytes)"
vector 349 AODVnormal.N[18].wlan[0].mac rcvdPkFromHl:vector(packetBytes) ETV
attr interpolationmode none
attr source packetReceivedFromUpper
attr title "packets received from higher layer, vector(packetBytes)"
vector 350 AODVnormal.N[18].wlan[0].mac.queue packetPushed:vector(packetBytes) ETV
attr interpolationmode none
attr title "packet pushed, vector(packetBytes)"
vector 351 AODVnormal.N[18].wlan[0].mac.queue queueLength:vector ETV
attr interpolationmode sample-hold
attr source "count(packetPushed) - count(packetPopped) - count(packetRemoved) - count(packetDropped)"
attr title "queue length, vector"
vector 352 AODVnormal.N[18].wlan[0].mac.queue packetPopped:vector(packetBytes) ETV
attr interpolationmode none
attr title "packet popped, vector(packetBytes)"
vector 353 AODVnormal.N[18].wlan[0].mac.queue queueingTime:vector ETV
attr interpolationmode none
attr source queueingTime(packetPopped)
attr title "queueing times, vector"
attr unit s
vector 354 AODVnormal.N[18].wlan[0].mac sentDownPk:vector(packetBytes) ETV
attr interpolationmode none
attr source packetSentToLower
attr title "packets sent to lower layer, vector(packetBytes)"
vector 355 AODVnormal.N[5].udp packetReceived:vector(packetBytes) ETV
attr interpolationmode none
attr source packetReceived
attr title "packets received, vector(packetBytes)"
vector 356 AODVnormal.N[5].udp passedUpPk:vector(count) ETV
attr interpolationmode none
attr source packetSentToUpper
attr title "packets passed up, vector(count)"
vector 357 AODVnormal.N[7].udp packetSent:vector(packetBytes) ETV
attr interpolationmode none
attr source packetSent
attr title "packets sent, vector(packetBytes)"
vector 358 AODVnormal.N[7].wlan[0].mac rcvdPkFromHl:vector(packetBytes) ETV
attr interpolationmode none
attr source packetReceivedFromUpper
attr title "packets received from higher layer, vector(packetBytes)"
vector 359 AODVnormal.N[7].wlan[0].mac.queue packetPushed:vector(packetBytes) ETV
attr interpolationmode none
attr title "packet pushed, vector(packetBytes)"
vector 360 AODVnormal.N[7].wlan[0].mac.queue queueLength:vector ETV
attr interpolationmode sample-hold
attr source "count(packetPushed) - count(packetPopped) - count(packetRemoved) - count(packetDropped)"
attr title "queue length, vector"
vector 361 AODVnormal.N[7].wlan[0].mac.queue packetPopped:vector(packetBytes) ETV
attr interpolationmode none
attr title "packet popped, vector(packetBytes)"
vector 362 AODVnormal.N[7].wlan[0].mac.queue queueingTime:vector ETV
attr interpolationmode none
attr source queueingTime(packetPopped)
attr title "queueing times, vector"
attr unit s
vector 363 AODVnormal.N[7].wlan[0].mac sentDownPk:vector(packetBytes) ETV
attr interpolationmode none
attr source packetSentToLower
attr title "packets sent to lower layer, vector(packetBytes)"
vector 364 AODVnormal.N[15].udp packetSent:vector(packetBytes) ETV
attr interpolationmode none
attr source packetSent
attr title "packets sent, vector(packetBytes)"
vector 365 AODVnormal.N[15].wlan[0].mac rcvdPkFromHl:vector(packetBytes) ETV
attr interpolationmode none
attr source packetReceivedFromUpper
attr title "packets received from higher layer, vector(packetBytes)"
vector 366 AODVnormal.N[15].wlan[0].mac.queue packetPushed:vector(packetBytes) ETV
attr interpolationmode none
attr title "packet pushed, vector(packetBytes)"
vector 367 AODVnormal.N[15].wlan[0].mac.queue queueLength:vector ETV
attr interpolationmode sample-hold
attr source "count(packetPushed) - count(packetPopped) - count(packetRemoved) - count(packetDropped)"
attr title "queue length, vector"
vector 368 AODVnormal.N[15].wlan[0].mac.queue packetPopped:vector(packetBytes) ETV
attr interpolationmode none
attr title "packet popped, vector(packetBytes)"
vector 369 AODVnormal.N[15].wlan[0].mac.queue queueingTime:vector ETV
attr interpolationmode none
attr source queueingTime(packetPopped)
attr title "queueing times, vector"
attr unit s
vector 370 AODVnormal.N[15].wlan[0].mac sentDownPk:vector(packetBytes) ETV
attr interpolationmode none
attr source packetSentToLower
attr title "packets sent to lower layer, vector(packetBytes)"
vector 371 AODVnormal.N[17].udp packetSent:vector(packetBytes) ETV
attr interpolationmode none
attr source packetSent
attr title "packets sent, vector(packetBytes)"
vector 372 AODVnormal.N[17].wlan[0].mac rcvdPkFromHl:vector(packetBytes) ETV
attr interpolationmode none
attr source packetReceivedFromUpper
attr title "packets received from higher layer, vector(packetBytes)"
vector 373 AODVnormal.N[17].wlan[0].mac.queue packetPushed:vector(packetBytes) ETV
attr interpolationmode none
attr title "packet pushed, vector(packetBytes)"
vector 374 AODVnormal.N[17].wlan[0].mac.queue queueLength:vector ETV
attr interpolationmode sample-hold
attr source "count(packetPushed) - count(packetPopped) - count(packetRemoved) - count(packetDropped)"
attr title "queue length, vector"
vector 375 AODVnormal.N[17].wlan[0].mac.queue packetPopped:vector(packetBytes) ETV
attr interpolationmode none
attr title "packet popped, vector(packetBytes)"
vector 376 AODVnormal.N[17].wlan[0].mac.queue queueingTime:vector ETV
attr interpolationmode none
attr source queueingTime(packetPopped)
attr title "queueing times, vector"
attr unit s
vector 377 AODVnormal.N[17].wlan[0].mac sentDownPk:vector(packetBytes) ETV
attr interpolationmode none
attr source packetSentToLower
attr title "packets sent to lower layer, vector(packetBytes)"
vector 378 AODVnormal.N[14].udp packetReceived:vector(packetBytes) ETV
attr interpolationmode none
attr source packetReceived
attr title "packets received, vector(packetBytes)"
vector 379 AODVnormal.N[14].udp passedUpPk:vector(count) ETV
attr interpolationmode none
attr source packetSentToUpper
attr title "packets passed up, vector(count)"
vector 380 AODVnormal.R[0].udp packetSent:vector(packetBytes) ETV
attr interpolationmode none
attr source packetSent
attr title "packets sent, vector(packetBytes)"
vector 381 AODVnormal.R[0].wlan[0].mac rcvdPkFromHl:vector(packetBytes) ETV
attr interpolationmode none
attr source packetReceivedFromUpper
attr title "packets received from higher layer, vector(packetBytes)"
vector 382 AODVnormal.R[0].wlan[0].mac.queue packetPushed:vector(packetBytes) ETV
attr interpolationmode none
attr title "packet pushed, vector(packetBytes)"
vector 383 AODVnormal.R[0].wlan[0].mac.queue queueLength:vector ETV
attr interpolationmode sample-hold
attr source "count(packetPushed) - count(packetPopped) - count(packetRemoved) - count(packetDropped)"
attr title "queue length, vector"
vector 384 AODVnormal.R[0].wlan[0].mac.queue packetPopped:vector(packetBytes) ETV
attr interpolationmode none
attr title "packet popped, vector(packetBytes)"
vector 385 AODVnormal.R[0].wlan[0].mac.queue queueingTime:vector ETV
attr interpolationmode none
attr source queueingTime(packetPopped)
attr title "queueing times, vector"
attr unit s
vector 386 AODVnormal.R[0].wlan[0].mac sentDownPk:vector(packetBytes) ETV
attr interpolationmode none
attr source packetSentToLower
attr title "packets sent to lower layer, vector(packetBytes)"
vector 387 AODVnormal.N[11].udp packetSent:vector(packetBytes) ETV
attr interpolationmode none
attr source packetSent
attr title "packets sent, vector(packetBytes)"
vector 388 AODVnormal.N[11].wlan[0].mac rcvdPkFromHl:vector(packetBytes) ETV
attr interpolationmode none
attr source packetReceivedFromUpper
attr title "packets received from higher layer, vector(packetBytes)"
vector 389 AODVnormal.N[11].wlan[0].mac.queue packetPushed:vector(packetBytes) ETV
attr interpolationmode none
attr title "packet pushed, vector(packetBytes)"
vector 390 AODVnormal.N[11].wlan[0].mac.queue queueLength:vector ETV
attr interpolationmode sample-hold
attr source "count(packetPushed) - count(packetPopped) - count(packetRemoved) - count(packetDropped)"
attr title "queue length, vector"
vector 391 AODVnormal.N[11].wlan[0].mac.queue packetPopped:vector(packetBytes) ETV
attr interpolationmode none
attr title "packet popped, vector(packetBytes)"
vector 392 AODVnormal.N[11].wlan[0].mac.queue queueingTime:vector ETV
attr interpolationmode none
attr source queueingTime(packetPopped)
attr title "queueing times, vector"
attr unit s
vector 393 AODVnormal.N[11].wlan[0].mac sentDownPk:vector(packetBytes) ETV
attr interpolationmode none
attr source packetSentToLower
attr title "packets sent to lower layer, vector(packetBytes)"
vector 394 AODVnormal.N[0].udp packetSent:vector(packetBytes) ETV
attr interpolationmode none
attr source packetSent
attr title "packets sent, vector(packetBytes)"
vector 395 AODVnormal.N[0].wlan[0].mac rcvdPkFromHl:vector(packetBytes) ETV
attr interpolationmode none
attr source packetReceivedFromUpper
attr title "packets received from higher layer, vector(packetBytes)"
vector 396 AODVnormal.N[0].wlan[0].mac.queue packetPushed:vector(packetBytes) ETV
attr interpolationmode none
attr title "packet pushed, vector(packetBytes)"
vector 397 AODVnormal.N[0].wlan[0].mac.queue queueLength:vector ETV
attr interpolationmode sample-hold
attr source "count(packetPushed) - count(packetPopped) - count(packetRemoved) - count(packetDropped)"
attr title "queue length, vector"
vector 398 AODVnormal.N[0].wlan[0].mac.queue packetPopped:vector(packetBytes) ETV
attr interpolationmode none
attr title "packet popped, vector(packetBytes)"
vector 399 AODVnormal.N[0].wlan[0].mac.queue queueingTime:vector ETV
attr interpolationmode none
attr source queueingTime(packetPopped)
attr title "queueing times, vector"
attr unit s
vector 400 AODVnormal.N[0].wlan[0].mac sentDownPk:vector(packetBytes) ETV
attr interpolationmode none
attr source packetSentToLower
attr title "packets sent to lower layer, vector(packetBytes)"
vector 401 AODVnormal.N[16].udp packetSent:vector(packetBytes) ETV
attr interpolationmode none
attr source packetSent
attr title "packets sent, vector(packetBytes)"
vector 402 AODVnormal.N[16].wlan[0].mac rcvdPkFromHl:vector(packetBytes) ETV
attr interpolationmode none
attr source packetReceivedFromUpper
attr title "packets received from higher layer, vector(packetBytes)"
vector 403 AODVnormal.N[16].wlan[0].mac.queue packetPushed:vector(packetBytes) ETV
attr interpolationmode none
attr title "packet pushed, vector(packetBytes)"
vector 404 AODVnormal.N[16].wlan[0].mac.queue queueLength:vector ETV
attr interpolationmode sample-hold
attr source "count(packetPushed) - count(packetPopped) - count(packetRemoved) - count(packetDropped)"
attr title "queue length, vector"
vector 405 AODVnormal.N[16].wlan[0].mac.queue packetPopped:vector(packetBytes) ETV
attr interpolationmode none
attr title "packet popped, vector(packetBytes)"
vector 406 AODVnormal.N[16].wlan[0].mac.queue queueingTime:vector ETV
attr interpolationmode none
attr source queueingTime(packetPopped)
attr title "queueing times, vector"
attr unit s
vector 407 AODVnormal.N[16].wlan[0].mac sentDownPk:vector(packetBytes) ETV
attr interpolationmode none
attr source packetSentToLower
attr title "packets sent to lower layer, vector(packetBytes)"
vector 408 AODVnormal.R[0].ipv4.arp arpRequestSent:vector(packetBytes) ETV
attr source arpRequestSent
attr title "ARP request sent, vector(packetBytes)"
vector 409 AODVnormal.R[1].ipv4.arp arpReplySent:vector(packetBytes) ETV
attr source arpReplySent
attr title "ARP replies sent, vector(packetBytes)"
[...]
292	5193275 2953 1137 409310 0.00443621475 198.80434911044 99 28 32 3140 99696
293	5196228 3702 1139 409312 0.00443621475 198.80434911044 123 28 540 13984 4936768
294	5199930 3702 1139 409312 0.00443621475 198.80434911044 123 28 540 13984 4936768
295	5203632 7126 1139 409312 0.00443621475 198.80434911044 246 0 1 123 123
296	5210758 3702 1139 409312 0.00443621475 198.80434911044 123 28 540 13984 4936768
297	5214460 3628 1139 409312 0.00443621475 198.80434911044 123 0 0.000225931822 0.000308569259 5.7556824548101e-08
298	5218088 3702 1139 409312 0.00443621475 198.80434911044 123 51 563 16813 5645099
299	5221790 1936 1186 411493 0.004584790446 198.813721166582 65 28 36 1996 61552
300	5223726 141 1187 258248 0.004584790446 150.817317637399 5 28 28 140 3920
301	5223867 6864 1188 412081 0.004584790446 198.82874798515 224 28 540 76868 39552208
302	5230731 6864 1188 412081 0.004584790446 198.82874798515 224 28 540 76868 39552208
303	5237595 13001 1188 412081 0.004584790446 198.82874798515 448 0 2 226 228
304	5250596 6855 1188 412081 0.004584790446 198.82874798515 224 28 540 76868 39552208
305	5257451 6665 1188 412081 0.004584790446 198.82874798515 224 0 0.098704738551 1.184048391677 0.1079990922968
306	5264116 6855 1188 412081 0.004584790446 198.82874798515 224 51 563 82020 43206632
307	5270971 13849 1192 412510 0.004584912255 199.002300653569 453 51 563 144299 73413669
308	5284820 5553 1192 411349 0.004584912255 198.810731056868 186 28 56 9108 457616
309	5290373 4860 1194 411351 0.004584912255 198.810731056868 163 28 36 5204 166224
310	5295233 4915 1194 411351 0.004584912255 198.810731056868 163 1 163 13366 1456894
311	5300148 117 1469 265511 0.004837322206 152.829226055448 4 28 28 112 3136
312	5300265 11188 1473 412144 0.004837442122 198.831048636826 367 51 563 109321 54840703
313	5311453 9228 1473 412144 0.004837442122 198.831048636826 302 28 540 96252 48734096
314	5320681 9955 1480 412153 0.004837574492 198.831048769196 328 51 563 89720 43779176
315	5330636 4442 1480 411456 0.004837574492 198.81232611277 150 28 64 7592 389376
316	5335078 2204 1535 410844 0.004990248206 198.8093512765 74 28 32 2360 75296
317	5337282 2344 1537 410846 0.004990248206 198.8093512765 79 28 52 3980 203216
318	5339626 2344 1537 410846 0.004990248206 198.8093512765 79 28 52 3980 203216
319	5341970 4530 1537 410846 0.004990248206 198.8093512765 158 0 1 79 79
320	5346500 2344 1537 410846 0.004990248206 198.8093512765 79 28 52 3980 203216
321	5348844 2291 1537 410846 0.004990248206 198.8093512765 79 0 0.000321835244 0.000458447659 1.2224087621267e-07
322	5351135 2344 1537 410846 0.004990248206 198.8093512765 79 51 75 5797 428087
323	5353479 21970 1686 412743 0.00508973011 199.006901575703 708 51 563 330692 181869844
324	5375449 8296 1695 412510 0.005089975775 199.002300653569 267 51 563 130913 72438691
325	5383745 14195 1701 412735 0.005090132449 199.006901220088 460 51 563 193848 104860212
326	5397940 7725 1766 411013 0.005339004049 198.809700032343 259 20 36 8240 262464
327	5405665 7876 1766 411013 0.005339004049 198.809700032343 259 1 259 33670 5824910
328	5413541 4861 1774 411233 0.005339048524 198.810463614626 164 51 79 12116 899028
329	5418402 4694 1774 411233 0.005339048524 198.810463614626 158 28 56 8076 416144
330	5423096 4526 1776 411235 0.005339048524 198.810463614626 152 32 36 4868 155920
331	5427622 4570 1776 411235 0.005339048524 198.810463614626 152 1 152 11628 1182180
332	5432192 1960 1856 411533 0.005422505642 198.814053818258 65 51 563 6123 1519257
333	5434152 5513 1862 412153 0.005422638012 198.831048769196 178 51 563 78678 42961218
334	5439665 2046 1887 410008 0.005430277822 198.806730028315 69 28 32 2124 65616
335	5441711 3458 1889 410010 0.005430277822 198.806730028315 115 28 540 22712 10392800
336	5445169 3458 1889 410010 0.005430277822 198.806730028315 115 28 540 22712 10392800
337	5448627 6617 1889 410010 0.005430277822 198.806730028315 230 0 2 117 119
338	5455244 3459 1889 410010 0.005430277822 198.806730028315 115 28 540 22712 10392800
339	5458703 3406 1889 410010 0.005430277822 198.806730028315 115 0 0.099485443143 0.19156584031 0.018372172069934
340	5462109 3459 1889 410010 0.005430277822 198.806730028315 115 51 563 25357 11498387
341	5465568 3005 1921 411655 0.005461472172 198.817527595127 101 28 36 3192 101056
342	5468573 5517 1923 412681 0.005461472172 199.004601123224 182 28 540 42808 20398944
343	5474090 5517 1923 412681 0.005461472172 199.004601123224 182 28 540 42808 20398944
344	5479607 10532 1923 412681 0.005461472172 199.004601123224 364 0 1 182 182
345	5490139 5517 1923 412681 0.005461472172 199.004601123224 182 28 540 42808 20398944
346	5495656 5266 1923 412681 0.005461472172 199.004601123224 182 0 0 0 0
347	5500922 5517 1923 412681 0.005461472172 199.004601123224 182 51 563 46994 22464390
348	5506439 3047 1955 408978 0.005695791716 198.802095782423 102 20 32 3248 103584
349	5509486 7638 1957 408980 0.005695791716 198.802095782423 249 28 540 78524 39649712
350	5517124 7638 1957 408980 0.005695791716 198.802095782423 249 28 540 78524 39649712
351	5524762 14509 1957 408980 0.005695791716 198.802095782423 498 0 2 251 253
352	5539271 7639 1957 408980 0.005695791716 198.802095782423 249 28 540 78524 39649712
353	5546910 7327 1957 408980 0.005695791716 198.802095782423 249 0 0.00460124856 0.007930682472 2.6990078170636e-05
354	5554237 7639 1957 408980 0.005695791716 198.802095782423 249 51 563 84251 43393537
355	5561876 3633 2017 411268 0.005779105592 198.810585336939 122 28 36 3780 117520
356	5565509 3647 2017 411268 0.005779105592 198.810585336939 122 1 122 7503 612745
357	5569156 3012 2181 410206 0.00611055587 198.807381827543 101 28 36 3180 100336
358	5572168 3821 2183 410208 0.00611055587 198.807381827543 128 28 540 13636 4651344
359	5575989 3821 2183 410208 0.00611055587 198.807381827543 128 28 540 13636 4651344
360	5579810 7356 2183 410208 0.00611055587 198.807381827543 256 0 1 128 128
361	5587166 3821 2183 410208 0.00611055587 198.807381827543 128 28 540 13636 4651344
362	5590987 3702 2183 410208 0.00611055587 198.807381827543 128 0 0.099702459734 0.099707701358 0.0099405805044845
363	5594689 3821 2183 410208 0.00611055587 198.807381827543 128 51 563 16580 5346312
364	5598510 1362 2349 411193 0.006426255354 198.810382246453 46 28 32 1464 46624
365	5599872 1390 2351 411195 0.006426255354 198.810382246453 47 28 52 2412 124368
366	5601262 1390 2351 411195 0.006426255354 198.810382246453 47 28 52 2412 124368
367	5602652 2686 2351 411195 0.006426255354 198.810382246453 94 0 1 47 47
368	5605338 1390 2351 411195 0.006426255354 198.810382246453 47 28 52 2412 124368
369	5606728 1343 2351 411195 0.006426255354 198.810382246453 47 0 0 0 0
370	5608071 1390 2351 411195 0.006426255354 198.810382246453 47 51 75 3493 260183
371	5609461 1685 2567 410538 0.007031825079 198.808318931933 57 28 36 1816 57920
372	5611146 1769 2569 410540 0.007031825079 198.808318931933 60 28 56 3040 155712
373	5612915 1769 2569 410540 0.007031825079 198.808318931933 60 28 56 3040 155712
374	5614684 3417 2569 410540 0.007031825079 198.808318931933 120 0 1 60 60
375	5618101 1768 2569 410540 0.007031825079 198.808318931933 60 28 56 3040 155712
376	5619869 1734 2569 410540 0.007031825079 198.808318931933 60 0 0.097878273157 0.098211057182 0.0095802671014036
377	5621603 1768 2569 410540 0.007031825079 198.808318931933 60 51 79 4420 327292
378	5623371 4191 2613 411458 0.007380219023 198.81232611277 141 28 44 4520 145120
379	5627562 4224 2613 411458 0.007380219023 198.81232611277 141 1 141 10011 944371
380	5631786 2923 2655 410240 0.007531304518 198.80743362351 98 28 36 3048 95168
381	5634709 3359 2657 410242 0.007531304518 198.80743362351 113 28 56 5428 268048
382	5638068 3359 2657 410242 0.007531304518 198.80743362351 113 28 56 5428 268048
383	5641427 6492 2657 410242 0.007531304518 198.80743362351 226 0 1 113 113
384	5647919 3359 2657 410242 0.007531304518 198.80743362351 113 28 56 5428 268048
385	5651278 3298 2657 410242 0.007531304518 198.80743362351 113 0 0.000991242698 0.001819265223 1.2300951370518e-06
386	5654576 3359 2657 410242 0.007531304518 198.80743362351 113 51 79 8027 577513
387	5657935 1313 2693 410138 0.007825771638 198.807276945267 44 32 32 1408 45056
388	5659248 1313 2695 410140 0.007825771638 198.807276945267 44 52 52 2288 118976
389	5660561 1313 2695 410140 0.007825771638 198.807276945267 44 52 52 2288 118976
390	5661874 2538 2695 410140 0.007825771638 198.807276945267 88 0 1 44 44
391	5664412 1313 2695 410140 0.007825771638 198.807276945267 44 52 52 2288 118976
392	5665725 1282 2695 410140 0.007825771638 198.807276945267 44 0 0.000216436149 0.000216436149 4.684460659395e-08
393	5667007 1313 2695 410140 0.007825771638 198.807276945267 44 75 75 3300 247500
394	5668320 2973 2793 410606 0.007891144181 198.808519177191 100 28 36 3172 100752
395	5671293 3414 2795 410608 0.007891144181 198.808519177191 115 28 540 7128 1151840
396	5674707 3414 2795 410608 0.007891144181 198.808519177191 115 28 540 7128 1151840
397	5678121 6591 2795 410608 0.007891144181 198.808519177191 230 0 1 115 115
398	5684712 3413 2795 410608 0.007891144181 198.808519177191 115 28 540 7128 1151840
399	5688125 3339 2795 410608 0.007891144181 198.808519177191 115 0 0.085924286333 0.086003032576 0.0073829891428694
400	5691464 3413 2795 410608 0.007891144181 198.808519177191 115 51 563 9773 1540563
401	5694877 2509 2827 410316 0.008094410069 198.807655602161 84 28 32 2680 85536
402	5697386 2593 2829 410318 0.008094410069 198.807655602161 87 28 52 4444 228688
403	5699979 2593 2829 410318 0.008094410069 198.807655602161 87 28 52 4444 228688
404	5702572 5014 2829 410318 0.008094410069 198.807655602161 174 0 1 87 87
405	5707586 2595 2829 410318 0.008094410069 198.807655602161 87 28 52 4444 228688
406	5710181 2571 2829 410318 0.008094410069 198.807655602161 87 0 0.000328594015 0.001072888192 2.8552582564794e-07
407	5712752 2595 2829 410318 0.008094410069 198.807655602161 87 51 75 6445 479135
408	5715347 371 3086 242810 0.103925565537 145.326145152617 13 28 28 364 10192
409	5715718 201 3218 232276 0.104177835254 140.32581213067 7 28 28 196 5488
410	5715919 3212 6935 409900 0.327540968631 198.806504639816 108 28 32 3424 108672
411	5719131 3410 6937 409902 0.327540968631 198.806504639816 115 28 540 7316 1166768
412	5722541 3410 6937 409902 0.327540968631 198.806504639816 115 28 540 7316 1166768
413	5725951 6584 6937 409902 0.327540968631 198.806504639816 230 0 3 123 135
414	5732535 3410 6937 409902 0.327540968631 198.806504639816 115 28 540 7316 1166768
415	5735945 3398 6937 409902 0.327540968631 198.806504639816 115 0 0.100332699405 0.395614529481 0.038668514710707
416	5739343 3410 6937 409902 0.327540968631 198.806504639816 115 51 563 9961 1564139
417	5742753 229 7029 379585 0.32768437999 188.827529472441 8 28 28 224 6272
418	5742982 1167 7132 411084 0.327818852859 198.810115074646 39 32 32 1248 39936
419	5744149 1167 7134 411086 0.327818852859 198.810115074646 39 52 52 2028 105456
420	5745316 1167 7134 411086 0.327818852859 198.810115074646 39 52 52 2028 105456
421	5746483 2256 7134 411086 0.327818852859 198.810115074646 78 0 1 39 39
422	5748739 1167 7134 411086 0.327818852859 198.810115074646 39 52 52 2028 105456
423	5749906 1128 7134 411086 0.327818852859 198.810115074646 39 0 0 0 0
424	5751034 1167 7134 411086 0.327818852859 198.810115074646 39 75 75 2925 219375
425	5752201 1519 7280 411416 0.327897943042 198.81197757279 51 28 44 1636 52656
426	5753720 1547 7282 411418 0.327897943042 198.81197757279 52 28 64 2684 139280
427	5755267 1547 7282 411418 0.327897943042 198.81197757279 52 28 64 2684 139280
428	5756814 2990 7282 411418 0.327897943042 198.81197757279 104 0 1 52 52
429	5759804 1547 7282 411418 0.327897943042 198.81197757279 52 28 64 2684 139280
430	5761351 1495 7282 411418 0.327897943042 198.81197757279 52 0 0 0 0
431	5762846 1547 7282 411418 0.327897943042 198.81197757279 52 51 87 3880 290252
432	5764393 2109 7774 411299 0.328437844757 198.810630636925 70 28 32 2112 64000
433	5766502 7508 7776 412146 0.328437844757 198.831048636826 243 28 540 93348 48587568
434	5774010 7508 7776 412146 0.328437844757 198.831048636826 243 28 540 93348 48587568
435	5781518 14198 7776 412146 0.328437844757 198.831048636826 486 0 1 243 243
436	5795716 7508 7776 412146 0.328437844757 198.831048636826 243 28 540 93348 48587568
437	5803224 7123 7776 412146 0.328437844757 198.831048636826 243 0 0.000228551621 0.000410868421 8.5475259023968e-08
438	5810347 7508 7776 412146 0.328437844757 198.831048636826 243 51 563 98937 53010123
439	5817855 7396 8198 412211 0.32878651151 198.833349303579 243 51 563 98937 53010123
440	5825251 6485 8198 412211 0.32878651151 198.833349303579 213 28 540 91908 48518448
441	5831736 6283 8200 412213 0.32878651151 198.833349303579 206 28 520 87592 44926880
442	5838019 6215 8200 412213 0.32878651151 198.833349303579 206 1 206 21321 2935191
443	5844234 83 8417 40938 0.329022588617 1.801737376845 3 28 28 84 2352
444	5844317 1022 10051 411128 0.331118065374 198.810252670186 34 28 32 972 27856
445	5845339 1081 10053 411130 0.331118065374 198.810252670186 36 28 52 1708 81904
446	5846420 1081 10053 411130 0.331118065374 198.810252670186 36 28 52 1708 81904
447	5847501 2090 10053 411130 0.331118065374 198.810252670186 72 0 1 36 36
448	5849591 1081 10053 411130 0.331118065374 198.810252670186 36 28 52 1708 81904
449	5850672 1045 10053 411130 0.331118065374 198.810252670186 36 0 0 0 0
450	5851717 1081 10053 411130 0.331118065374 198.810252670186 36 51 75 2536 179516
451	5852798 376 11153 251891 0.332550760661 148.33569031622 13 28 28 364 10192
452	5853174 56 11265 30757 0.332803420838 1.111163358188 2 28 28 56 1568
453	5853230 2687 11328 410172 0.33286607478 198.80731456989 90 28 32 2860 90960
454	5855917 2886 11330 410174 0.33286607478 198.80731456989 97 28 540 6392 1119296
455	5858803 2886 11330 410174 0.33286607478 198.80731456989 97 28 540 6392 1119296
456	5861689 5572 11330 410174 0.33286607478 198.80731456989 194 0 1 97 97
457	5867261 2886 11330 410174 0.33286607478 198.80731456989 97 28 540 6392 1119296
458	5870147 2837 11330 410174 0.33286607478 198.80731456989 97 0 0.000332608321 0.000834562801 2.3661712313908e-07
459	5872984 2886 11330 410174 0.33286607478 198.80731456989 97 51 563 8623 1464641
460	5875870 2366 11368 386457 0.333056120243 190.83352510072 80 51 563 17440 8135600
461	5878236 112 13563 42666 0.645775935525 1.818975457283 4 28 28 112 3136
462	5878348 74 13591 207496 0.645776070029 124 3 28 28 84 2352
463	5878422 118 13776 220437 0.646028622164 138.002553113705 4 28 28 112 3136
464	5878540 401 14119 392418 0.646725372556 192.82114709507 14 28 28 392 10976
465	5878941 177 14667 257721 0.648480525967 150.814079377942 6 28 28 168 4704
466	5879118 570 14732 257756 0.648733177643 150.814332029618 19 28 28 532 14896
467	5879688 911 14872 411385 0.649318496072 198.810963303678 30 71 71 2130 151230
468	5880599 118 15290 271920 0.651642499602 154.831778348307 4 28 28 112 3136
469	5880717 77 15549 300409 0.653750622189 163.470320660234 3 28 28 84 2352
470	5880794 139 15944 60286 0.655182869581 4.009895590866 5 28 28 140 3920
471	5880933 55 16115 42279 0.65543546731 1.817277717944 2 28 28 56 1568
472	5880988 28 16462 16462 0.656925149291 0.656925149291 1 28 28 28 784
473	5881016 56 16624 42060 0.657177949609 1.816092172061 2 28 28 56 1568
474	5881072 84 19397 45236 0.803685587255 2.455466659027 3 28 28 84 2352
475	5881156 56 19419 40186 0.803685756601 1.650116896156 2 28 28 56 1568
476	5881212 28 20344 20344 0.805384377485 0.805384377485 1 28 28 28 784
477	5881240 56 20454 24973 0.805637054825 0.816612140357 2 28 28 56 1568
478	5881296 6275 21874 412469 0.809477204357 199.002300293311 200 512 512 102400 52428800
479	5887571 37162 21874 412934 0.1 200 2000 0 40960 8192000 335544320000
480	5924733 8475 21874 412469 0.809477204357 199.002300293311 200 0.002300293311 0.809477204357 1.267740159868 0.65630889888975
481	5933208 6165 21874 412469 0.809477204357 199.002300293311 200 0 199 19900 2646700
482	5939373 55 21924 30719 0.80950165509 1.110910749867 2 28 28 56 1568
483	5939428 55 21937 31226 0.809501775682 1.20905648231 2 28 28 56 1568
484	5939483 15022 22298 412667 0.810087060139 199.00460095328 486 51 563 251278 139985774
485	5954505 17930 22300 412669 0.810087070262 199.004600963403 573 51 563 312559 175360277
486	5972435 20439 22309 412675 0.810087182578 199.004601075719 654 51 563 338754 188842734
487	5992874 28 22758 22758 0.810702601451 0.810702601451 1 28 28 28 784
488	5992902 6580 23146 412523 0.811540495633 199.002300788981 211 51 563 110821 61877411
489	5999482 167 24832 42639 0.816424660148 1.81870155317 6 51 71 406 27806
490	5999649 84 25179 42412 0.817024956333 1.817726628751 3 28 28 84 2352
491	5999733 5585 28194 412496 1.00230053176 199.00230053176 184 512 512 94208 48234496
492	6005318 37098 28194 412934 0.1 200 2000 0 40960 7536640 308700774400
493	6042416 7431 28194 412496 1.00230053176 199.00230053176 184 0.00230053176 1.658612717647 2.099673083418 2.7521961320211
494	6049847 5475 28194 412496 1.00230053176 199.00230053176 184 0 199 17828 2378036
495	6055322 317 28542 301689 1.004916395342 164.476012514181 11 28 28 308 8624
496	6055639 56 30028 42496 1.107307900842 1.818115997009 2 28 28 56 1568
497	6055695 139 31261 232593 1.209308844944 140.328698122303 5 28 28 140 3920
498	6055834 5844 31978 412752 1.219413834421 199.006901865277 186 512 512 95232 48758784
499	6061678 37090 31978 412934 0.1 200 2000 0 81920 7618560 318767104000
500	6098768 7888 31978 412752 1.219413834421 199.006901865277 186 0.006901865277 1.333884855548 7.525656641357 5.2262647113509
501	6106656 5746 31978 412752 1.219413834421 199.006901865277 186 0 199 18975 2523765
502	6112402 239 35903 291256 1.446574692467 160.828853306093 8 28 28 224 6272
503	6112641 28 37579 37579 1.450014674258 1.450014674258 1 28 28 28 784
504	6112669 28 37767 37767 1.450267341011 1.450267341011 1 28 28 28 784
505	6112697 28 40046 40046 1.647563486716 1.647563486716 1 28 28 28 784
506	6112725 375 40390 291199 1.652923128024 160.828601043429 19 28 28 532 14896
507	6113100 181 41311 258524 1.803254337403 150.821733065145 6 28 28 168 4704
508	6113281 57 41550 91282 1.804901560289 12.328637071455 2 28 28 56 1568
509	6113338 206 45489 392463 2.45811581702 192.821399547549 7 28 28 196 5488
510	6113544 84 45746 214981 2.463358112975 131.000252329 3 28 28 84 2352
511	6113628 88 45959 300450 2.467678053255 163.470573259052 3 28 28 84 2352
512	6113716 5089 47027 412214 2.48206713106 198.833349303579 166 512 512 84992 43515904
513	6118805 36991 47027 412934 0.1 200 2000 0 204800 6799360 328833433600
514	6155796 6807 47027 412214 2.48206713106 198.833349303579 166 0.013803808999 4.847223162154 49.890679986601 91.247750332087
515	6162603 4985 47027 412214 2.48206713106 198.833349303579 166 0 198 14727 1774873
516	6167588 28 47741 47741 2.650984551104 2.650984551104 1 28 28 28 784
517	6167616 6159 61031 412481 4.015333497646 199.002300407469 196 512 512 100352 51380224
518	6173775 37146 61031 412934 0.1 200 2000 0 40960 8028160 328833433600
519	6210921 8315 61031 412481 4.015333497646 199.002300407469 196 0.002300407469 0.015333497646 0.475918478409 0.001348974979028
520	6219236 6057 61031 412481 4.015333497646 199.002300407469 196 4 199 19894 2646686
521	6225293 339 83323 231315 10.473689359301 139.831823559356 11 28 28 308 8624
522	6225632 28 83503 83503 10.47474689744 10.47474689744 1 28 28 28 784
523	6225660 61 104333 221345 16.336346610345 138.105359514617 2 28 28 56 1568
524	6225721 31 206258 206258 122.105359237319 122.105359237319 1 28 28 28 784
525	6225752 285 208655 218984 125 137 15 540 540 8100 4374000
526	6226037 162 214806 221639 131 139 9 28 28 252 7056
527	6226199 114 216963 218985 134 137 6 540 540 3240 1749600
528	6226313 36502 412934 412934 0.1 200 2000 0 0 0 0
529	6262815 36502 412934 412934 0.1 200 2000 0 0 0 0
530	6299317 36502 412934 412934 0.1 200 2000 0 0 0 0
531	6335819 36502 412934 412934 0.1 200 2000 0 0 0 0
532	6372321 36502 412934 412934 0.1 200 2000 0 0 0 0

