version 2
run Dynamic-blackhole-0-20200316-09:19:06-32350
attr configname Dynamic-blackhole
attr datetime 20200316-09:19:06
attr experiment Dynamic-blackhole
attr inifile AODVgrayhole.ini
attr iterationvars ""
attr iterationvarsf ""
attr measurement ""
attr network AODVgrayhole
attr processid 32350
attr repetition 0
attr replication #0
attr resultdir results
attr runnumber 0
attr seedset 0
param *.host[*].hasStatus true
param *.scenarioManager.script "xmldoc(\"dynamic.xml\")"
param *.host[*].wlan[*].radio.transmitter.communicationRange 250m
param **.wlan[*].typename "\"AckingWirelessInterface\""
param **.wlan[*].bitrate 2Mbps
param **.wlan[*].mac.headerLength 23B
param **.wlan[*].radio.typename "\"UnitDiskRadio\""
param **.wlan[*].radio.transmitter.headerLength 96b
param **.wlan[*].radio.transmitter.communicationRange 250m
param **.wlan[*].radio.transmitter.interferenceRange 0m
param **.wlan[*].radio.transmitter.detectionRange 0m
param **.wlan[*].radio.receiver.ignoreInterference true
param *.numHosts 18
param **.host[*].mobility.typename "\"StationaryMobility\""
param **.mobility.constraintAreaMinZ 0m
param **.mobility.constraintAreaMaxZ 0m
param **.mobility.constraintAreaMinX 5m
param **.mobility.constraintAreaMinY 5m
param **.mobility.constraintAreaMaxX 785m
param **.mobility.constraintAreaMaxY 490m
param *.visualizer.sceneVisualizer.descriptionFigure "\"title\""
param *.visualizer.dataLinkVisualizer.displayLinks true
param *.visualizer.networkRouteVisualizer.displayRoutes true
param *.visualizer.networkRouteVisualizer.lineShift 0
param *.visualizer.networkRouteVisualizer.packetFilter "\"UDPData*\""
param *.visualizer.physicalLinkVisualizer.packetFilter "\"UDPData*\""
param *.sender.numApps 1
param *.sender.app[0].typename "\"UdpBasicApp\""
param *.sender.app[0].destAddresses "\"receiver\""
param *.sender.app[0].destPort 1000
param *.sender.app[0].sendInterval 1s
param *.sender.app[0].startTime 0s
param *.sender.app[0].messageLength 512Byte
param *.sender.app[0].packetName "\"UDPdata\""
param *.receiver.numApps 1
param *.receiver.app[0].typename "\"UdpSink\""
param *.receiver.app[0].localPort 1000
param **.hasStatus true

vector 0 AODVgrayhole.host[0].wlan[0].radio radioMode:vector ETV
attr interpolationmode sample-hold
attr source radioModeChanged
attr title "Radio mode, vector"
vector 1 AODVgrayhole.host[1].wlan[0].radio radioMode:vector ETV
attr interpolationmode sample-hold
attr source radioModeChanged
attr title "Radio mode, vector"
vector 2 AODVgrayhole.host[2].wlan[0].radio radioMode:vector ETV
attr interpolationmode sample-hold
attr source radioModeChanged
attr title "Radio mode, vector"
vector 3 AODVgrayhole.host[3].wlan[0].radio radioMode:vector ETV
attr interpolationmode sample-hold
attr source radioModeChanged
attr title "Radio mode, vector"
vector 4 AODVgrayhole.host[4].wlan[0].radio radioMode:vector ETV
attr interpolationmode sample-hold
attr source radioModeChanged
attr title "Radio mode, vector"
vector 5 AODVgrayhole.host[5].wlan[0].radio radioMode:vector ETV
attr interpolationmode sample-hold
attr source radioModeChanged
attr title "Radio mode, vector"
vector 6 AODVgrayhole.host[6].wlan[0].radio radioMode:vector ETV
attr interpolationmode sample-hold
attr source radioModeChanged
attr title "Radio mode, vector"
vector 7 AODVgrayhole.host[7].wlan[0].radio radioMode:vector ETV
attr interpolationmode sample-hold
attr source radioModeChanged
attr title "Radio mode, vector"
vector 8 AODVgrayhole.host[8].wlan[0].radio radioMode:vector ETV
attr interpolationmode sample-hold
attr source radioModeChanged
attr title "Radio mode, vector"
vector 9 AODVgrayhole.host[9].wlan[0].radio radioMode:vector ETV
attr interpolationmode sample-hold
attr source radioModeChanged
attr title "Radio mode, vector"
vector 10 AODVgrayhole.host[10].wlan[0].radio radioMode:vector ETV
attr interpolationmode sample-hold
attr source radioModeChanged
attr title "Radio mode, vector"
vector 11 AODVgrayhole.host[11].wlan[0].radio radioMode:vector ETV
attr interpolationmode sample-hold
attr source radioModeChanged
attr title "Radio mode, vector"
vector 12 AODVgrayhole.host[12].wlan[0].radio radioMode:vector ETV
attr interpolationmode sample-hold
attr source radioModeChanged
attr title "Radio mode, vector"
vector 13 AODVgrayhole.host[13].wlan[0].radio radioMode:vector ETV
attr interpolationmode sample-hold
attr source radioModeChanged
attr title "Radio mode, vector"
vector 14 AODVgrayhole.host[14].wlan[0].radio radioMode:vector ETV
attr interpolationmode sample-hold
attr source radioModeChanged
attr title "Radio mode, vector"
vector 15 AODVgrayhole.host[15].wlan[0].radio radioMode:vector ETV
attr interpolationmode sample-hold
attr source radioModeChanged
attr title "Radio mode, vector"
vector 16 AODVgrayhole.host[16].wlan[0].radio radioMode:vector ETV
attr interpolationmode sample-hold
attr source radioModeChanged
attr title "Radio mode, vector"
vector 17 AODVgrayhole.host[17].wlan[0].radio radioMode:vector ETV
attr interpolationmode sample-hold
attr source radioModeChanged
attr title "Radio mode, vector"
vector 18 AODVgrayhole.sender.wlan[0].radio radioMode:vector ETV
attr interpolationmode sample-hold
attr source radioModeChanged
attr title "Radio mode, vector"
vector 19 AODVgrayhole.receiver.wlan[0].radio radioMode:vector ETV
attr interpolationmode sample-hold
attr source radioModeChanged
attr title "Radio mode, vector"
vector 20 AODVgrayhole.ntu_Grayholer.wlan[0].radio radioMode:vector ETV
attr interpolationmode sample-hold
attr source radioModeChanged
attr title "Radio mode, vector"
vector 21 AODVgrayhole.host[0].wlan[0].radio receptionState:vector ETV
attr interpolationmode sample-hold
attr source receptionStateChanged
attr title "Radio reception state, vector"
vector 22 AODVgrayhole.host[0].wlan[0].radio transmissionState:vector ETV
attr interpolationmode sample-hold
attr source transmissionStateChanged
attr title "Radio transmission state, vector"
vector 23 AODVgrayhole.host[1].wlan[0].radio receptionState:vector ETV
attr interpolationmode sample-hold
attr source receptionStateChanged
attr title "Radio reception state, vector"
vector 24 AODVgrayhole.host[1].wlan[0].radio transmissionState:vector ETV
attr interpolationmode sample-hold
attr source transmissionStateChanged
attr title "Radio transmission state, vector"
vector 25 AODVgrayhole.host[2].wlan[0].radio receptionState:vector ETV
attr interpolationmode sample-hold
attr source receptionStateChanged
attr title "Radio reception state, vector"
vector 26 AODVgrayhole.host[2].wlan[0].radio transmissionState:vector ETV
attr interpolationmode sample-hold
attr source transmissionStateChanged
attr title "Radio transmission state, vector"
vector 27 AODVgrayhole.host[3].wlan[0].radio receptionState:vector ETV
attr interpolationmode sample-hold
attr source receptionStateChanged
attr title "Radio reception state, vector"
vector 28 AODVgrayhole.host[3].wlan[0].radio transmissionState:vector ETV
attr interpolationmode sample-hold
attr source transmissionStateChanged
attr title "Radio transmission state, vector"
vector 29 AODVgrayhole.host[4].wlan[0].radio receptionState:vector ETV
attr interpolationmode sample-hold
attr source receptionStateChanged
attr title "Radio reception state, vector"
vector 30 AODVgrayhole.host[4].wlan[0].radio transmissionState:vector ETV
attr interpolationmode sample-hold
attr source transmissionStateChanged
attr title "Radio transmission state, vector"
vector 31 AODVgrayhole.host[5].wlan[0].radio receptionState:vector ETV
attr interpolationmode sample-hold
attr source receptionStateChanged
attr title "Radio reception state, vector"
vector 32 AODVgrayhole.host[5].wlan[0].radio transmissionState:vector ETV
attr interpolationmode sample-hold
attr source transmissionStateChanged
attr title "Radio transmission state, vector"
vector 33 AODVgrayhole.host[6].wlan[0].radio receptionState:vector ETV
attr interpolationmode sample-hold
attr source receptionStateChanged
attr title "Radio reception state, vector"
vector 34 AODVgrayhole.host[6].wlan[0].radio transmissionState:vector ETV
attr interpolationmode sample-hold
attr source transmissionStateChanged
attr title "Radio transmission state, vector"
vector 35 AODVgrayhole.host[7].wlan[0].radio receptionState:vector ETV
attr interpolationmode sample-hold
attr source receptionStateChanged
attr title "Radio reception state, vector"
vector 36 AODVgrayhole.host[7].wlan[0].radio transmissionState:vector ETV
attr interpolationmode sample-hold
attr source transmissionStateChanged
attr title "Radio transmission state, vector"
vector 37 AODVgrayhole.host[8].wlan[0].radio receptionState:vector ETV
attr interpolationmode sample-hold
attr source receptionStateChanged
attr title "Radio reception state, vector"
vector 38 AODVgrayhole.host[8].wlan[0].radio transmissionState:vector ETV
attr interpolationmode sample-hold
attr source transmissionStateChanged
attr title "Radio transmission state, vector"
vector 39 AODVgrayhole.host[9].wlan[0].radio receptionState:vector ETV
attr interpolationmode sample-hold
attr source receptionStateChanged
attr title "Radio reception state, vector"
vector 40 AODVgrayhole.host[9].wlan[0].radio transmissionState:vector ETV
attr interpolationmode sample-hold
attr source transmissionStateChanged
attr title "Radio transmission state, vector"
vector 41 AODVgrayhole.host[10].wlan[0].radio receptionState:vector ETV
attr interpolationmode sample-hold
attr source receptionStateChanged
attr title "Radio reception state, vector"
vector 42 AODVgrayhole.host[10].wlan[0].radio transmissionState:vector ETV
attr interpolationmode sample-hold
attr source transmissionStateChanged
attr title "Radio transmission state, vector"
vector 43 AODVgrayhole.host[11].wlan[0].radio receptionState:vector ETV
attr interpolationmode sample-hold
attr source receptionStateChanged
attr title "Radio reception state, vector"
vector 44 AODVgrayhole.host[11].wlan[0].radio transmissionState:vector ETV
attr interpolationmode sample-hold
attr source transmissionStateChanged
attr title "Radio transmission state, vector"
vector 45 AODVgrayhole.host[12].wlan[0].radio receptionState:vector ETV
attr interpolationmode sample-hold
attr source receptionStateChanged
attr title "Radio reception state, vector"
vector 46 AODVgrayhole.host[12].wlan[0].radio transmissionState:vector ETV
attr interpolationmode sample-hold
attr source transmissionStateChanged
attr title "Radio transmission state, vector"
vector 47 AODVgrayhole.host[13].wlan[0].radio receptionState:vector ETV
attr interpolationmode sample-hold
attr source receptionStateChanged
attr title "Radio reception state, vector"
vector 48 AODVgrayhole.host[13].wlan[0].radio transmissionState:vector ETV
attr interpolationmode sample-hold
attr source transmissionStateChanged
attr title "Radio transmission state, vector"
vector 49 AODVgrayhole.host[14].wlan[0].radio receptionState:vector ETV
attr interpolationmode sample-hold
attr source receptionStateChanged
attr title "Radio reception state, vector"
vector 50 AODVgrayhole.host[14].wlan[0].radio transmissionState:vector ETV
attr interpolationmode sample-hold
attr source transmissionStateChanged
attr title "Radio transmission state, vector"
vector 51 AODVgrayhole.host[15].wlan[0].radio receptionState:vector ETV
attr interpolationmode sample-hold
attr source receptionStateChanged
attr title "Radio reception state, vector"
vector 52 AODVgrayhole.host[15].wlan[0].radio transmissionState:vector ETV
attr interpolationmode sample-hold
attr source transmissionStateChanged
attr title "Radio transmission state, vector"
vector 53 AODVgrayhole.host[16].wlan[0].radio receptionState:vector ETV
attr interpolationmode sample-hold
attr source receptionStateChanged
attr title "Radio reception state, vector"
vector 54 AODVgrayhole.host[16].wlan[0].radio transmissionState:vector ETV
attr interpolationmode sample-hold
attr source transmissionStateChanged
attr title "Radio transmission state, vector"
vector 55 AODVgrayhole.host[17].wlan[0].radio receptionState:vector ETV
attr interpolationmode sample-hold
attr source receptionStateChanged
attr title "Radio reception state, vector"
vector 56 AODVgrayhole.host[17].wlan[0].radio transmissionState:vector ETV
attr interpolationmode sample-hold
attr source transmissionStateChanged
attr title "Radio transmission state, vector"
vector 57 AODVgrayhole.sender.wlan[0].radio receptionState:vector ETV
attr interpolationmode sample-hold
attr source receptionStateChanged
attr title "Radio reception state, vector"
vector 58 AODVgrayhole.sender.wlan[0].radio transmissionState:vector ETV
attr interpolationmode sample-hold
attr source transmissionStateChanged
attr title "Radio transmission state, vector"
vector 59 AODVgrayhole.receiver.wlan[0].radio receptionState:vector ETV
attr interpolationmode sample-hold
attr source receptionStateChanged
attr title "Radio reception state, vector"
vector 60 AODVgrayhole.receiver.wlan[0].radio transmissionState:vector ETV
attr interpolationmode sample-hold
attr source transmissionStateChanged
attr title "Radio transmission state, vector"
vector 61 AODVgrayhole.ntu_Grayholer.wlan[0].radio receptionState:vector ETV
attr interpolationmode sample-hold
attr source receptionStateChanged
attr title "Radio reception state, vector"
vector 62 AODVgrayhole.ntu_Grayholer.wlan[0].radio transmissionState:vector ETV
attr interpolationmode sample-hold
attr source transmissionStateChanged
attr title "Radio transmission state, vector"
vector 63 AODVgrayhole.sender.app[0] packetSent:vector(packetBytes) ETV
attr interpolationmode none
attr source packetSent
attr title "packets sent, vector(packetBytes)"
vector 64 AODVgrayhole.sender.udp packetSent:vector(packetBytes) ETV
attr interpolationmode none
attr source packetSent
attr title "packets sent, vector(packetBytes)"
vector 65 AODVgrayhole.sender.wlan[0].mac rcvdPkFromHl:vector(packetBytes) ETV
attr interpolationmode none
attr source packetReceivedFromUpper
attr title "packets received from higher layer, vector(packetBytes)"
vector 66 AODVgrayhole.sender.wlan[0].mac.queue packetPushed:vector(packetBytes) ETV
attr interpolationmode none
attr title "packet pushed, vector(packetBytes)"
vector 67 AODVgrayhole.sender.wlan[0].mac.queue queueLength:vector ETV
attr interpolationmode sample-hold
attr source "count(packetPushed) - count(packetPopped) - count(packetRemoved) - count(packetDropped)"
attr title "queue length, vector"
vector 68 AODVgrayhole.sender.wlan[0].mac.queue packetPopped:vector(packetBytes) ETV
attr interpolationmode none
attr title "packet popped, vector(packetBytes)"
vector 69 AODVgrayhole.sender.wlan[0].mac.queue queueingTime:vector ETV
attr interpolationmode none
attr source queueingTime(packetPopped)
attr title "queueing times, vector"
attr unit s
vector 70 AODVgrayhole.sender.wlan[0].mac sentDownPk:vector(packetBytes) ETV
attr interpolationmode none
attr source packetSentToLower
attr title "packets sent to lower layer, vector(packetBytes)"
vector 71 AODVgrayhole.host[10].wlan[0].mac rcvdPkFromLl:vector(packetBytes) ETV
attr interpolationmode none
attr source packetReceivedFromLower
attr title "packets received from lower layer, vector(packetBytes)"
vector 72 AODVgrayhole.host[10].wlan[0].mac passedUpPk:vector(packetBytes) ETV
attr interpolationmode none
attr source packetSentToUpper
attr title "packets passed to higher layer, vector(packetBytes)"
vector 73 AODVgrayhole.host[10].udp packetReceived:vector(packetBytes) ETV
attr interpolationmode none
attr source packetReceived
attr title "packets received, vector(packetBytes)"
vector 74 AODVgrayhole.host[10].udp passedUpPk:vector(count) ETV
attr interpolationmode none
attr source packetSentToUpper
attr title "packets passed up, vector(count)"
vector 75 AODVgrayhole.host[8].wlan[0].mac rcvdPkFromLl:vector(packetBytes) ETV
attr interpolationmode none
attr source packetReceivedFromLower
attr title "packets received from lower layer, vector(packetBytes)"
vector 76 AODVgrayhole.host[8].wlan[0].mac passedUpPk:vector(packetBytes) ETV
attr interpolationmode none
attr source packetSentToUpper
attr title "packets passed to higher layer, vector(packetBytes)"
vector 77 AODVgrayhole.host[8].udp packetReceived:vector(packetBytes) ETV
attr interpolationmode none
attr source packetReceived
attr title "packets received, vector(packetBytes)"
vector 78 AODVgrayhole.host[8].udp passedUpPk:vector(count) ETV
attr interpolationmode none
attr source packetSentToUpper
attr title "packets passed up, vector(count)"
vector 79 AODVgrayhole.host[11].wlan[0].mac rcvdPkFromLl:vector(packetBytes) ETV
attr interpolationmode none
attr source packetReceivedFromLower
attr title "packets received from lower layer, vector(packetBytes)"
vector 80 AODVgrayhole.host[11].wlan[0].mac passedUpPk:vector(packetBytes) ETV
attr interpolationmode none
attr source packetSentToUpper
attr title "packets passed to higher layer, vector(packetBytes)"
vector 81 AODVgrayhole.host[11].udp packetReceived:vector(packetBytes) ETV
attr interpolationmode none
attr source packetReceived
attr title "packets received, vector(packetBytes)"
vector 82 AODVgrayhole.host[11].udp passedUpPk:vector(count) ETV
attr interpolationmode none
attr source packetSentToUpper
attr title "packets passed up, vector(count)"
vector 83 AODVgrayhole.host[2].wlan[0].mac rcvdPkFromLl:vector(packetBytes) ETV
attr interpolationmode none
attr source packetReceivedFromLower
attr title "packets received from lower layer, vector(packetBytes)"
vector 84 AODVgrayhole.host[2].wlan[0].mac passedUpPk:vector(packetBytes) ETV
attr interpolationmode none
attr source packetSentToUpper
attr title "packets passed to higher layer, vector(packetBytes)"
vector 85 AODVgrayhole.host[2].udp packetReceived:vector(packetBytes) ETV
attr interpolationmode none
attr source packetReceived
attr title "packets received, vector(packetBytes)"
vector 86 AODVgrayhole.host[2].udp passedUpPk:vector(count) ETV
attr interpolationmode none
attr source packetSentToUpper
attr title "packets passed up, vector(count)"
vector 87 AODVgrayhole.host[7].wlan[0].mac rcvdPkFromLl:vector(packetBytes) ETV
attr interpolationmode none
attr source packetReceivedFromLower
attr title "packets received from lower layer, vector(packetBytes)"
vector 88 AODVgrayhole.host[7].wlan[0].mac passedUpPk:vector(packetBytes) ETV
attr interpolationmode none
attr source packetSentToUpper
attr title "packets passed to higher layer, vector(packetBytes)"
vector 89 AODVgrayhole.host[7].udp packetReceived:vector(packetBytes) ETV
attr interpolationmode none
attr source packetReceived
attr title "packets received, vector(packetBytes)"
vector 90 AODVgrayhole.host[7].udp passedUpPk:vector(count) ETV
attr interpolationmode none
attr source packetSentToUpper
attr title "packets passed up, vector(count)"
vector 91 AODVgrayhole.host[7].udp packetSent:vector(packetBytes) ETV
attr interpolationmode none
attr source packetSent
attr title "packets sent, vector(packetBytes)"
vector 92 AODVgrayhole.host[7].wlan[0].mac rcvdPkFromHl:vector(packetBytes) ETV
attr interpolationmode none
attr source packetReceivedFromUpper
attr title "packets received from higher layer, vector(packetBytes)"
vector 93 AODVgrayhole.host[7].wlan[0].mac.queue packetPushed:vector(packetBytes) ETV
attr interpolationmode none
attr title "packet pushed, vector(packetBytes)"
vector 94 AODVgrayhole.host[7].wlan[0].mac.queue queueLength:vector ETV
attr interpolationmode sample-hold
attr source "count(packetPushed) - count(packetPopped) - count(packetRemoved) - count(packetDropped)"
attr title "queue length, vector"
vector 95 AODVgrayhole.host[7].wlan[0].mac.queue packetPopped:vector(packetBytes) ETV
attr interpolationmode none
attr title "packet popped, vector(packetBytes)"
vector 96 AODVgrayhole.host[7].wlan[0].mac.queue queueingTime:vector ETV
attr interpolationmode none
attr source queueingTime(packetPopped)
attr title "queueing times, vector"
attr unit s
vector 97 AODVgrayhole.host[7].wlan[0].mac sentDownPk:vector(packetBytes) ETV
attr interpolationmode none
attr source packetSentToLower
attr title "packets sent to lower layer, vector(packetBytes)"
vector 98 AODVgrayhole.host[11].udp packetSent:vector(packetBytes) ETV
attr interpolationmode none
attr source packetSent
attr title "packets sent, vector(packetBytes)"
vector 99 AODVgrayhole.host[11].wlan[0].mac rcvdPkFromHl:vector(packetBytes) ETV
attr interpolationmode none
attr source packetReceivedFromUpper
attr title "packets received from higher layer, vector(packetBytes)"
vector 100 AODVgrayhole.host[11].wlan[0].mac.queue packetPushed:vector(packetBytes) ETV
attr interpolationmode none
attr title "packet pushed, vector(packetBytes)"
vector 101 AODVgrayhole.host[11].wlan[0].mac.queue queueLength:vector ETV
attr interpolationmode sample-hold
attr source "count(packetPushed) - count(packetPopped) - count(packetRemoved) - count(packetDropped)"
attr title "queue length, vector"
vector 102 AODVgrayhole.host[11].wlan[0].mac.queue packetPopped:vector(packetBytes) ETV
attr interpolationmode none
attr title "packet popped, vector(packetBytes)"
vector 103 AODVgrayhole.host[11].wlan[0].mac.queue queueingTime:vector ETV
attr interpolationmode none
attr source queueingTime(packetPopped)
attr title "queueing times, vector"
attr unit s
vector 104 AODVgrayhole.host[11].wlan[0].mac sentDownPk:vector(packetBytes) ETV
attr interpolationmode none
attr source packetSentToLower
attr title "packets sent to lower layer, vector(packetBytes)"
vector 105 AODVgrayhole.host[9].wlan[0].mac rcvdPkFromLl:vector(packetBytes) ETV
attr interpolationmode none
attr source packetReceivedFromLower
attr title "packets received from lower layer, vector(packetBytes)"
vector 106 AODVgrayhole.host[9].wlan[0].mac passedUpPk:vector(packetBytes) ETV
attr interpolationmode none
attr source packetSentToUpper
attr title "packets passed to higher layer, vector(packetBytes)"
vector 107 AODVgrayhole.host[9].udp packetReceived:vector(packetBytes) ETV
attr interpolationmode none
attr source packetReceived
attr title "packets received, vector(packetBytes)"
vector 108 AODVgrayhole.host[9].udp passedUpPk:vector(count) ETV
attr interpolationmode none
attr source packetSentToUpper
attr title "packets passed up, vector(count)"
vector 109 AODVgrayhole.ntu_Grayholer.wlan[0].mac rcvdPkFromLl:vector(packetBytes) ETV
attr interpolationmode none
attr source packetReceivedFromLower
attr title "packets received from lower layer, vector(packetBytes)"
vector 110 AODVgrayhole.ntu_Grayholer.wlan[0].mac passedUpPk:vector(packetBytes) ETV
attr interpolationmode none
attr source packetSentToUpper
attr title "packets passed to higher layer, vector(packetBytes)"
vector 111 AODVgrayhole.ntu_Grayholer.udp packetReceived:vector(packetBytes) ETV
attr interpolationmode none
attr source packetReceived
attr title "packets received, vector(packetBytes)"
vector 112 AODVgrayhole.ntu_Grayholer.udp passedUpPk:vector(count) ETV
attr interpolationmode none
attr source packetSentToUpper
attr title "packets passed up, vector(count)"
vector 113 AODVgrayhole.ntu_Grayholer.udp packetSent:vector(packetBytes) ETV
attr interpolationmode none
attr source packetSent
attr title "packets sent, vector(packetBytes)"
vector 114 AODVgrayhole.ntu_Grayholer.ipv4.arp arpRequestSent:vector(packetBytes) ETV
attr source arpRequestSent
attr title "ARP request sent, vector(packetBytes)"
vector 115 AODVgrayhole.ntu_Grayholer.wlan[0].mac rcvdPkFromHl:vector(packetBytes) ETV
attr interpolationmode none
attr source packetReceivedFromUpper
attr title "packets received from higher layer, vector(packetBytes)"
vector 116 AODVgrayhole.ntu_Grayholer.wlan[0].mac.queue packetPushed:vector(packetBytes) ETV
attr interpolationmode none
attr title "packet pushed, vector(packetBytes)"
vector 117 AODVgrayhole.ntu_Grayholer.wlan[0].mac.queue queueLength:vector ETV
attr interpolationmode sample-hold
attr source "count(packetPushed) - count(packetPopped) - count(packetRemoved) - count(packetDropped)"
attr title "queue length, vector"
vector 118 AODVgrayhole.ntu_Grayholer.wlan[0].mac.queue packetPopped:vector(packetBytes) ETV
attr interpolationmode none
attr title "packet popped, vector(packetBytes)"
vector 119 AODVgrayhole.ntu_Grayholer.wlan[0].mac.queue queueingTime:vector ETV
attr interpolationmode none
attr source queueingTime(packetPopped)
attr title "queueing times, vector"
attr unit s
vector 120 AODVgrayhole.ntu_Grayholer.wlan[0].mac sentDownPk:vector(packetBytes) ETV
attr interpolationmode none
attr source packetSentToLower
attr title "packets sent to lower layer, vector(packetBytes)"
vector 121 AODVgrayhole.host[15].wlan[0].mac rcvdPkFromLl:vector(packetBytes) ETV
attr interpolationmode none
attr source packetReceivedFromLower
attr title "packets received from lower layer, vector(packetBytes)"
vector 122 AODVgrayhole.host[15].wlan[0].mac passedUpPk:vector(packetBytes) ETV
attr interpolationmode none
attr source packetSentToUpper
attr title "packets passed to higher layer, vector(packetBytes)"
vector 123 AODVgrayhole.host[15].udp packetReceived:vector(packetBytes) ETV
attr interpolationmode none
attr source packetReceived
attr title "packets received, vector(packetBytes)"
vector 124 AODVgrayhole.host[15].udp passedUpPk:vector(count) ETV
attr interpolationmode none
attr source packetSentToUpper
attr title "packets passed up, vector(count)"
vector 125 AODVgrayhole.host[1].wlan[0].mac rcvdPkFromLl:vector(packetBytes) ETV
attr interpolationmode none
attr source packetReceivedFromLower
attr title "packets received from lower layer, vector(packetBytes)"
vector 126 AODVgrayhole.host[1].wlan[0].mac passedUpPk:vector(packetBytes) ETV
attr interpolationmode none
attr source packetSentToUpper
attr title "packets passed to higher layer, vector(packetBytes)"
vector 127 AODVgrayhole.host[1].udp packetReceived:vector(packetBytes) ETV
attr interpolationmode none
attr source packetReceived
attr title "packets received, vector(packetBytes)"
vector 128 AODVgrayhole.host[1].udp passedUpPk:vector(count) ETV
attr interpolationmode none
attr source packetSentToUpper
attr title "packets passed up, vector(count)"
vector 129 AODVgrayhole.host[16].wlan[0].mac rcvdPkFromLl:vector(packetBytes) ETV
attr interpolationmode none
attr source packetReceivedFromLower
attr title "packets received from lower layer, vector(packetBytes)"
vector 130 AODVgrayhole.host[16].wlan[0].mac passedUpPk:vector(packetBytes) ETV
attr interpolationmode none
attr source packetSentToUpper
attr title "packets passed to higher layer, vector(packetBytes)"
vector 131 AODVgrayhole.host[16].udp packetReceived:vector(packetBytes) ETV
attr interpolationmode none
attr source packetReceived
attr title "packets received, vector(packetBytes)"
vector 132 AODVgrayhole.host[16].udp passedUpPk:vector(count) ETV
attr interpolationmode none
attr source packetSentToUpper
attr title "packets passed up, vector(count)"
vector 133 AODVgrayhole.host[4].wlan[0].mac rcvdPkFromLl:vector(packetBytes) ETV
attr interpolationmode none
attr source packetReceivedFromLower
attr title "packets received from lower layer, vector(packetBytes)"
vector 134 AODVgrayhole.host[4].wlan[0].mac passedUpPk:vector(packetBytes) ETV
attr interpolationmode none
attr source packetSentToUpper
attr title "packets passed to higher layer, vector(packetBytes)"
vector 135 AODVgrayhole.host[4].udp packetReceived:vector(packetBytes) ETV
attr interpolationmode none
attr source packetReceived
attr title "packets received, vector(packetBytes)"
vector 136 AODVgrayhole.host[4].udp passedUpPk:vector(count) ETV
attr interpolationmode none
attr source packetSentToUpper
attr title "packets passed up, vector(count)"
vector 137 AODVgrayhole.sender.wlan[0].mac rcvdPkFromLl:vector(packetBytes) ETV
attr interpolationmode none
attr source packetReceivedFromLower
attr title "packets received from lower layer, vector(packetBytes)"
vector 138 AODVgrayhole.sender.wlan[0].mac passedUpPk:vector(packetBytes) ETV
attr interpolationmode none
attr source packetSentToUpper
attr title "packets passed to higher layer, vector(packetBytes)"
vector 139 AODVgrayhole.sender.udp packetReceived:vector(packetBytes) ETV
attr interpolationmode none
attr source packetReceived
attr title "packets received, vector(packetBytes)"
vector 140 AODVgrayhole.sender.udp passedUpPk:vector(count) ETV
attr interpolationmode none
attr source packetSentToUpper
attr title "packets passed up, vector(count)"
vector 141 AODVgrayhole.host[17].wlan[0].mac rcvdPkFromLl:vector(packetBytes) ETV
attr interpolationmode none
attr source packetReceivedFromLower
attr title "packets received from lower layer, vector(packetBytes)"
vector 142 AODVgrayhole.host[17].wlan[0].mac passedUpPk:vector(packetBytes) ETV
attr interpolationmode none
attr source packetSentToUpper
attr title "packets passed to higher layer, vector(packetBytes)"
vector 143 AODVgrayhole.host[12].wlan[0].mac rcvdPkFromLl:vector(packetBytes) ETV
attr interpolationmode none
attr source packetReceivedFromLower
attr title "packets received from lower layer, vector(packetBytes)"
vector 144 AODVgrayhole.host[12].wlan[0].mac passedUpPk:vector(packetBytes) ETV
attr interpolationmode none
attr source packetSentToUpper
attr title "packets passed to higher layer, vector(packetBytes)"
vector 145 AODVgrayhole.host[12].udp packetReceived:vector(packetBytes) ETV
attr interpolationmode none
attr source packetReceived
attr title "packets received, vector(packetBytes)"
vector 146 AODVgrayhole.host[12].udp passedUpPk:vector(count) ETV
attr interpolationmode none
attr source packetSentToUpper
attr title "packets passed up, vector(count)"
vector 147 AODVgrayhole.host[10].udp packetSent:vector(packetBytes) ETV
attr interpolationmode none
attr source packetSent
attr title "packets sent, vector(packetBytes)"
vector 148 AODVgrayhole.host[10].wlan[0].mac rcvdPkFromHl:vector(packetBytes) ETV
attr interpolationmode none
attr source packetReceivedFromUpper
attr title "packets received from higher layer, vector(packetBytes)"
vector 149 AODVgrayhole.host[10].wlan[0].mac.queue packetPushed:vector(packetBytes) ETV
attr interpolationmode none
attr title "packet pushed, vector(packetBytes)"
vector 150 AODVgrayhole.host[10].wlan[0].mac.queue queueLength:vector ETV
attr interpolationmode sample-hold
attr source "count(packetPushed) - count(packetPopped) - count(packetRemoved) - count(packetDropped)"
attr title "queue length, vector"
vector 151 AODVgrayhole.host[10].wlan[0].mac.queue packetPopped:vector(packetBytes) ETV
attr interpolationmode none
attr title "packet popped, vector(packetBytes)"
vector 152 AODVgrayhole.host[10].wlan[0].mac.queue queueingTime:vector ETV
attr interpolationmode none
attr source queueingTime(packetPopped)
attr title "queueing times, vector"
attr unit s
vector 153 AODVgrayhole.host[10].wlan[0].mac sentDownPk:vector(packetBytes) ETV
attr interpolationmode none
attr source packetSentToLower
attr title "packets sent to lower layer, vector(packetBytes)"
vector 154 AODVgrayhole.host[8].udp packetSent:vector(packetBytes) ETV
attr interpolationmode none
attr source packetSent
attr title "packets sent, vector(packetBytes)"
vector 155 AODVgrayhole.host[8].wlan[0].mac rcvdPkFromHl:vector(packetBytes) ETV
attr interpolationmode none
attr source packetReceivedFromUpper
attr title "packets received from higher layer, vector(packetBytes)"
vector 156 AODVgrayhole.host[8].wlan[0].mac.queue packetPushed:vector(packetBytes) ETV
attr interpolationmode none
attr title "packet pushed, vector(packetBytes)"
vector 157 AODVgrayhole.host[8].wlan[0].mac.queue queueLength:vector ETV
attr interpolationmode sample-hold
attr source "count(packetPushed) - count(packetPopped) - count(packetRemoved) - count(packetDropped)"
attr title "queue length, vector"
vector 158 AODVgrayhole.host[8].wlan[0].mac.queue packetPopped:vector(packetBytes) ETV
attr interpolationmode none
attr title "packet popped, vector(packetBytes)"
vector 159 AODVgrayhole.host[8].wlan[0].mac.queue queueingTime:vector ETV
attr interpolationmode none
attr source queueingTime(packetPopped)
attr title "queueing times, vector"
attr unit s
vector 160 AODVgrayhole.host[8].wlan[0].mac sentDownPk:vector(packetBytes) ETV
attr interpolationmode none
attr source packetSentToLower
attr title "packets sent to lower layer, vector(packetBytes)"
vector 161 AODVgrayhole.host[2].udp packetSent:vector(packetBytes) ETV
attr interpolationmode none
attr source packetSent
attr title "packets sent, vector(packetBytes)"
vector 162 AODVgrayhole.host[2].wlan[0].mac rcvdPkFromHl:vector(packetBytes) ETV
attr interpolationmode none
attr source packetReceivedFromUpper
attr title "packets received from higher layer, vector(packetBytes)"
vector 163 AODVgrayhole.host[2].wlan[0].mac.queue packetPushed:vector(packetBytes) ETV
attr interpolationmode none
attr title "packet pushed, vector(packetBytes)"
vector 164 AODVgrayhole.host[2].wlan[0].mac.queue queueLength:vector ETV
attr interpolationmode sample-hold
attr source "count(packetPushed) - count(packetPopped) - count(packetRemoved) - count(packetDropped)"
attr title "queue length, vector"
vector 165 AODVgrayhole.host[2].wlan[0].mac.queue packetPopped:vector(packetBytes) ETV
attr interpolationmode none
attr title "packet popped, vector(packetBytes)"
vector 166 AODVgrayhole.host[2].wlan[0].mac.queue queueingTime:vector ETV
attr interpolationmode none
attr source queueingTime(packetPopped)
attr title "queueing times, vector"
attr unit s
vector 167 AODVgrayhole.host[2].wlan[0].mac sentDownPk:vector(packetBytes) ETV
attr interpolationmode none
attr source packetSentToLower
attr title "packets sent to lower layer, vector(packetBytes)"
vector 168 AODVgrayhole.host[2].ipv4.arp arpReplySent:vector(packetBytes) ETV
attr source arpReplySent
attr title "ARP replies sent, vector(packetBytes)"
vector 169 AODVgrayhole.host[9].udp packetSent:vector(packetBytes) ETV
attr interpolationmode none
attr source packetSent
attr title "packets sent, vector(packetBytes)"
vector 170 AODVgrayhole.host[9].wlan[0].mac rcvdPkFromHl:vector(packetBytes) ETV
attr interpolationmode none
attr source packetReceivedFromUpper
attr title "packets received from higher layer, vector(packetBytes)"
vector 171 AODVgrayhole.host[9].wlan[0].mac.queue packetPushed:vector(packetBytes) ETV
attr interpolationmode none
attr title "packet pushed, vector(packetBytes)"
vector 172 AODVgrayhole.host[9].wlan[0].mac.queue queueLength:vector ETV
attr interpolationmode sample-hold
attr source "count(packetPushed) - count(packetPopped) - count(packetRemoved) - count(packetDropped)"
attr title "queue length, vector"
vector 173 AODVgrayhole.host[9].wlan[0].mac.queue packetPopped:vector(packetBytes) ETV
attr interpolationmode none
attr title "packet popped, vector(packetBytes)"
vector 174 AODVgrayhole.host[9].wlan[0].mac.queue queueingTime:vector ETV
attr interpolationmode none
attr source queueingTime(packetPopped)
attr title "queueing times, vector"
attr unit s
vector 175 AODVgrayhole.host[9].wlan[0].mac sentDownPk:vector(packetBytes) ETV
attr interpolationmode none
attr source packetSentToLower
attr title "packets sent to lower layer, vector(packetBytes)"
vector 176 AODVgrayhole.host[7].wlan[0].mac packetDropNotAddressedToUs:vector(packetBytes) ETV
attr interpolationmode none
attr source packetDropReasonIsNotAddressedToUs(packetDropped)
attr title "packet drop: not addressed to us, vector(packetBytes)"
vector 177 AODVgrayhole.host[8].wlan[0].mac packetDropNotAddressedToUs:vector(packetBytes) ETV
attr interpolationmode none
attr source packetDropReasonIsNotAddressedToUs(packetDropped)
attr title "packet drop: not addressed to us, vector(packetBytes)"
vector 178 AODVgrayhole.host[9].wlan[0].mac packetDropNotAddressedToUs:vector(packetBytes) ETV
attr interpolationmode none
attr source packetDropReasonIsNotAddressedToUs(packetDropped)
attr title "packet drop: not addressed to us, vector(packetBytes)"
vector 179 AODVgrayhole.host[15].wlan[0].mac packetDropNotAddressedToUs:vector(packetBytes) ETV
attr interpolationmode none
attr source packetDropReasonIsNotAddressedToUs(packetDropped)
attr title "packet drop: not addressed to us, vector(packetBytes)"
vector 180 AODVgrayhole.host[16].wlan[0].mac packetDropNotAddressedToUs:vector(packetBytes) ETV
attr interpolationmode none
attr source packetDropReasonIsNotAddressedToUs(packetDropped)
attr title "packet drop: not addressed to us, vector(packetBytes)"
vector 181 AODVgrayhole.host[6].wlan[0].mac rcvdPkFromLl:vector(packetBytes) ETV
attr interpolationmode none
attr source packetReceivedFromLower
attr title "packets received from lower layer, vector(packetBytes)"
vector 182 AODVgrayhole.host[6].wlan[0].mac passedUpPk:vector(packetBytes) ETV
attr interpolationmode none
attr source packetSentToUpper
attr title "packets passed to higher layer, vector(packetBytes)"
vector 183 AODVgrayhole.host[6].udp packetReceived:vector(packetBytes) ETV
attr interpolationmode none
attr source packetReceived
attr title "packets received, vector(packetBytes)"
vector 184 AODVgrayhole.host[6].udp passedUpPk:vector(count) ETV
attr interpolationmode none
attr source packetSentToUpper
attr title "packets passed up, vector(count)"
vector 185 AODVgrayhole.host[3].wlan[0].mac rcvdPkFromLl:vector(packetBytes) ETV
attr interpolationmode none
attr source packetReceivedFromLower
attr title "packets received from lower layer, vector(packetBytes)"
vector 186 AODVgrayhole.host[3].wlan[0].mac passedUpPk:vector(packetBytes) ETV
attr interpolationmode none
attr source packetSentToUpper
attr title "packets passed to higher layer, vector(packetBytes)"
vector 187 AODVgrayhole.host[3].udp packetReceived:vector(packetBytes) ETV
attr interpolationmode none
attr source packetReceived
attr title "packets received, vector(packetBytes)"
vector 188 AODVgrayhole.host[3].udp passedUpPk:vector(count) ETV
attr interpolationmode none
attr source packetSentToUpper
attr title "packets passed up, vector(count)"
vector 189 AODVgrayhole.host[5].wlan[0].mac rcvdPkFromLl:vector(packetBytes) ETV
attr interpolationmode none
attr source packetReceivedFromLower
attr title "packets received from lower layer, vector(packetBytes)"
vector 190 AODVgrayhole.host[5].wlan[0].mac passedUpPk:vector(packetBytes) ETV
attr interpolationmode none
attr source packetSentToUpper
attr title "packets passed to higher layer, vector(packetBytes)"
vector 191 AODVgrayhole.host[5].udp packetReceived:vector(packetBytes) ETV
attr interpolationmode none
attr source packetReceived
attr title "packets received, vector(packetBytes)"
vector 192 AODVgrayhole.host[5].udp passedUpPk:vector(count) ETV
attr interpolationmode none
attr source packetSentToUpper
attr title "packets passed up, vector(count)"
vector 193 AODVgrayhole.host[17].wlan[0].mac packetDropNotAddressedToUs:vector(packetBytes) ETV
attr interpolationmode none
attr source packetDropReasonIsNotAddressedToUs(packetDropped)
attr title "packet drop: not addressed to us, vector(packetBytes)"
vector 194 AODVgrayhole.host[1].udp packetSent:vector(packetBytes) ETV
attr interpolationmode none
attr source packetSent
attr title "packets sent, vector(packetBytes)"
vector 195 AODVgrayhole.host[1].wlan[0].mac rcvdPkFromHl:vector(packetBytes) ETV
attr interpolationmode none
attr source packetReceivedFromUpper
attr title "packets received from higher layer, vector(packetBytes)"
vector 196 AODVgrayhole.host[1].wlan[0].mac.queue packetPushed:vector(packetBytes) ETV
attr interpolationmode none
attr title "packet pushed, vector(packetBytes)"
vector 197 AODVgrayhole.host[1].wlan[0].mac.queue queueLength:vector ETV
attr interpolationmode sample-hold
attr source "count(packetPushed) - count(packetPopped) - count(packetRemoved) - count(packetDropped)"
attr title "queue length, vector"
vector 198 AODVgrayhole.host[1].wlan[0].mac.queue packetPopped:vector(packetBytes) ETV
attr interpolationmode none
attr title "packet popped, vector(packetBytes)"
vector 199 AODVgrayhole.host[1].wlan[0].mac.queue queueingTime:vector ETV
attr interpolationmode none
attr source queueingTime(packetPopped)
attr title "queueing times, vector"
attr unit s
vector 200 AODVgrayhole.host[1].wlan[0].mac sentDownPk:vector(packetBytes) ETV
attr interpolationmode none
attr source packetSentToLower
attr title "packets sent to lower layer, vector(packetBytes)"
vector 201 AODVgrayhole.host[5].udp packetSent:vector(packetBytes) ETV
attr interpolationmode none
attr source packetSent
attr title "packets sent, vector(packetBytes)"
vector 202 AODVgrayhole.host[5].wlan[0].mac rcvdPkFromHl:vector(packetBytes) ETV
attr interpolationmode none
attr source packetReceivedFromUpper
attr title "packets received from higher layer, vector(packetBytes)"
vector 203 AODVgrayhole.host[5].wlan[0].mac.queue packetPushed:vector(packetBytes) ETV
attr interpolationmode none
attr title "packet pushed, vector(packetBytes)"
vector 204 AODVgrayhole.host[5].wlan[0].mac.queue queueLength:vector ETV
attr interpolationmode sample-hold
attr source "count(packetPushed) - count(packetPopped) - count(packetRemoved) - count(packetDropped)"
attr title "queue length, vector"
vector 205 AODVgrayhole.host[5].wlan[0].mac.queue packetPopped:vector(packetBytes) ETV
attr interpolationmode none
attr title "packet popped, vector(packetBytes)"
vector 206 AODVgrayhole.host[5].wlan[0].mac.queue queueingTime:vector ETV
attr interpolationmode none
attr source queueingTime(packetPopped)
attr title "queueing times, vector"
attr unit s
vector 207 AODVgrayhole.host[5].wlan[0].mac sentDownPk:vector(packetBytes) ETV
attr interpolationmode none
attr source packetSentToLower
attr title "packets sent to lower layer, vector(packetBytes)"
vector 208 AODVgrayhole.host[16].udp packetSent:vector(packetBytes) ETV
attr interpolationmode none
attr source packetSent
attr title "packets sent, vector(packetBytes)"
vector 209 AODVgrayhole.host[16].wlan[0].mac rcvdPkFromHl:vector(packetBytes) ETV
attr interpolationmode none
attr source packetReceivedFromUpper
attr title "packets received from higher layer, vector(packetBytes)"
vector 210 AODVgrayhole.host[16].wlan[0].mac.queue packetPushed:vector(packetBytes) ETV
attr interpolationmode none
attr title "packet pushed, vector(packetBytes)"
vector 211 AODVgrayhole.host[16].wlan[0].mac.queue queueLength:vector ETV
attr interpolationmode sample-hold
attr source "count(packetPushed) - count(packetPopped) - count(packetRemoved) - count(packetDropped)"
attr title "queue length, vector"
vector 212 AODVgrayhole.host[16].wlan[0].mac.queue packetPopped:vector(packetBytes) ETV
attr interpolationmode none
attr title "packet popped, vector(packetBytes)"
vector 213 AODVgrayhole.host[16].wlan[0].mac.queue queueingTime:vector ETV
attr interpolationmode none
attr source queueingTime(packetPopped)
attr title "queueing times, vector"
attr unit s
vector 214 AODVgrayhole.host[16].wlan[0].mac sentDownPk:vector(packetBytes) ETV
attr interpolationmode none
attr source packetSentToLower
attr title "packets sent to lower layer, vector(packetBytes)"
vector 215 AODVgrayhole.host[13].wlan[0].mac rcvdPkFromLl:vector(packetBytes) ETV
attr interpolationmode none
attr source packetReceivedFromLower
attr title "packets received from lower layer, vector(packetBytes)"
vector 216 AODVgrayhole.host[13].wlan[0].mac passedUpPk:vector(packetBytes) ETV
attr interpolationmode none
attr source packetSentToUpper
attr title "packets passed to higher layer, vector(packetBytes)"
vector 217 AODVgrayhole.host[13].udp packetReceived:vector(packetBytes) ETV
attr interpolationmode none
attr source packetReceived
attr title "packets received, vector(packetBytes)"
vector 218 AODVgrayhole.host[13].udp passedUpPk:vector(count) ETV
attr interpolationmode none
attr source packetSentToUpper
attr title "packets passed up, vector(count)"
vector 219 AODVgrayhole.host[0].wlan[0].mac rcvdPkFromLl:vector(packetBytes) ETV
attr interpolationmode none
attr source packetReceivedFromLower
attr title "packets received from lower layer, vector(packetBytes)"
vector 220 AODVgrayhole.host[0].wlan[0].mac passedUpPk:vector(packetBytes) ETV
attr interpolationmode none
attr source packetSentToUpper
attr title "packets passed to higher layer, vector(packetBytes)"
vector 221 AODVgrayhole.host[0].udp packetReceived:vector(packetBytes) ETV
attr interpolationmode none
attr source packetReceived
attr title "packets received, vector(packetBytes)"
vector 222 AODVgrayhole.host[0].udp passedUpPk:vector(count) ETV
attr interpolationmode none
attr source packetSentToUpper
attr title "packets passed up, vector(count)"
vector 223 AODVgrayhole.host[14].wlan[0].mac rcvdPkFromLl:vector(packetBytes) ETV
attr interpolationmode none
attr source packetReceivedFromLower
attr title "packets received from lower layer, vector(packetBytes)"
vector 224 AODVgrayhole.host[14].wlan[0].mac passedUpPk:vector(packetBytes) ETV
attr interpolationmode none
attr source packetSentToUpper
attr title "packets passed to higher layer, vector(packetBytes)"
vector 225 AODVgrayhole.host[14].udp packetReceived:vector(packetBytes) ETV
attr interpolationmode none
attr source packetReceived
attr title "packets received, vector(packetBytes)"
vector 226 AODVgrayhole.host[14].udp passedUpPk:vector(count) ETV
attr interpolationmode none
attr source packetSentToUpper
attr title "packets passed up, vector(count)"
vector 227 AODVgrayhole.receiver.wlan[0].mac rcvdPkFromLl:vector(packetBytes) ETV
attr interpolationmode none
attr source packetReceivedFromLower
attr title "packets received from lower layer, vector(packetBytes)"
vector 228 AODVgrayhole.receiver.wlan[0].mac passedUpPk:vector(packetBytes) ETV
attr interpolationmode none
attr source packetSentToUpper
attr title "packets passed to higher layer, vector(packetBytes)"
vector 229 AODVgrayhole.receiver.udp packetReceived:vector(packetBytes) ETV
attr interpolationmode none
attr source packetReceived
attr title "packets received, vector(packetBytes)"
vector 230 AODVgrayhole.receiver.udp passedUpPk:vector(count) ETV
attr interpolationmode none
attr source packetSentToUpper
attr title "packets passed up, vector(count)"
vector 231 AODVgrayhole.receiver.udp packetSent:vector(packetBytes) ETV
attr interpolationmode none
attr source packetSent
attr title "packets sent, vector(packetBytes)"
vector 232 AODVgrayhole.receiver.ipv4.arp arpRequestSent:vector(packetBytes) ETV
attr source arpRequestSent
attr title "ARP request sent, vector(packetBytes)"
vector 233 AODVgrayhole.receiver.wlan[0].mac rcvdPkFromHl:vector(packetBytes) ETV
attr interpolationmode none
attr source packetReceivedFromUpper
attr title "packets received from higher layer, vector(packetBytes)"
vector 234 AODVgrayhole.receiver.wlan[0].mac.queue packetPushed:vector(packetBytes) ETV
attr interpolationmode none
attr title "packet pushed, vector(packetBytes)"
vector 235 AODVgrayhole.receiver.wlan[0].mac.queue queueLength:vector ETV
attr interpolationmode sample-hold
attr source "count(packetPushed) - count(packetPopped) - count(packetRemoved) - count(packetDropped)"
attr title "queue length, vector"
vector 236 AODVgrayhole.receiver.wlan[0].mac.queue packetPopped:vector(packetBytes) ETV
attr interpolationmode none
attr title "packet popped, vector(packetBytes)"
vector 237 AODVgrayhole.receiver.wlan[0].mac.queue queueingTime:vector ETV
attr interpolationmode none
attr source queueingTime(packetPopped)
attr title "queueing times, vector"
attr unit s
vector 238 AODVgrayhole.receiver.wlan[0].mac sentDownPk:vector(packetBytes) ETV
attr interpolationmode none
attr source packetSentToLower
attr title "packets sent to lower layer, vector(packetBytes)"
vector 239 AODVgrayhole.host[6].udp packetSent:vector(packetBytes) ETV
attr interpolationmode none
attr source packetSent
attr title "packets sent, vector(packetBytes)"
vector 240 AODVgrayhole.host[6].wlan[0].mac rcvdPkFromHl:vector(packetBytes) ETV
attr interpolationmode none
attr source packetReceivedFromUpper
attr title "packets received from higher layer, vector(packetBytes)"
vector 241 AODVgrayhole.host[6].wlan[0].mac.queue packetPushed:vector(packetBytes) ETV
attr interpolationmode none
attr title "packet pushed, vector(packetBytes)"
vector 242 AODVgrayhole.host[6].wlan[0].mac.queue queueLength:vector ETV
attr interpolationmode sample-hold
attr source "count(packetPushed) - count(packetPopped) - count(packetRemoved) - count(packetDropped)"
attr title "queue length, vector"
vector 243 AODVgrayhole.host[6].wlan[0].mac.queue packetPopped:vector(packetBytes) ETV
attr interpolationmode none
attr title "packet popped, vector(packetBytes)"
vector 244 AODVgrayhole.host[6].wlan[0].mac.queue queueingTime:vector ETV
attr interpolationmode none
attr source queueingTime(packetPopped)
attr title "queueing times, vector"
attr unit s
vector 245 AODVgrayhole.host[6].wlan[0].mac sentDownPk:vector(packetBytes) ETV
attr interpolationmode none
attr source packetSentToLower
attr title "packets sent to lower layer, vector(packetBytes)"
vector 246 AODVgrayhole.host[3].udp packetSent:vector(packetBytes) ETV
attr interpolationmode none
attr source packetSent
attr title "packets sent, vector(packetBytes)"
vector 247 AODVgrayhole.host[3].wlan[0].mac rcvdPkFromHl:vector(packetBytes) ETV
attr interpolationmode none
attr source packetReceivedFromUpper
attr title "packets received from higher layer, vector(packetBytes)"
vector 248 AODVgrayhole.host[3].wlan[0].mac.queue packetPushed:vector(packetBytes) ETV
attr interpolationmode none
attr title "packet pushed, vector(packetBytes)"
vector 249 AODVgrayhole.host[3].wlan[0].mac.queue queueLength:vector ETV
attr interpolationmode sample-hold
attr source "count(packetPushed) - count(packetPopped) - count(packetRemoved) - count(packetDropped)"
attr title "queue length, vector"
vector 250 AODVgrayhole.host[3].wlan[0].mac.queue packetPopped:vector(packetBytes) ETV
attr interpolationmode none
attr title "packet popped, vector(packetBytes)"
vector 251 AODVgrayhole.host[3].wlan[0].mac.queue queueingTime:vector ETV
attr interpolationmode none
attr source queueingTime(packetPopped)
attr title "queueing times, vector"
attr unit s
vector 252 AODVgrayhole.host[3].wlan[0].mac sentDownPk:vector(packetBytes) ETV
attr interpolationmode none
attr source packetSentToLower
attr title "packets sent to lower layer, vector(packetBytes)"
vector 253 AODVgrayhole.host[15].udp packetSent:vector(packetBytes) ETV
attr interpolationmode none
attr source packetSent
attr title "packets sent, vector(packetBytes)"
vector 254 AODVgrayhole.host[15].wlan[0].mac rcvdPkFromHl:vector(packetBytes) ETV
attr interpolationmode none
attr source packetReceivedFromUpper
attr title "packets received from higher layer, vector(packetBytes)"
vector 255 AODVgrayhole.host[15].wlan[0].mac.queue packetPushed:vector(packetBytes) ETV
attr interpolationmode none
attr title "packet pushed, vector(packetBytes)"
vector 256 AODVgrayhole.host[15].wlan[0].mac.queue queueLength:vector ETV
attr interpolationmode sample-hold
attr source "count(packetPushed) - count(packetPopped) - count(packetRemoved) - count(packetDropped)"
attr title "queue length, vector"
vector 257 AODVgrayhole.host[15].wlan[0].mac.queue packetPopped:vector(packetBytes) ETV
attr interpolationmode none
attr title "packet popped, vector(packetBytes)"
vector 258 AODVgrayhole.host[15].wlan[0].mac.queue queueingTime:vector ETV
attr interpolationmode none
attr source queueingTime(packetPopped)
attr title "queueing times, vector"
attr unit s
vector 259 AODVgrayhole.host[15].wlan[0].mac sentDownPk:vector(packetBytes) ETV
attr interpolationmode none
attr source packetSentToLower
attr title "packets sent to lower layer, vector(packetBytes)"
vector 260 AODVgrayhole.host[12].udp packetSent:vector(packetBytes) ETV
attr interpolationmode none
attr source packetSent
attr title "packets sent, vector(packetBytes)"
vector 261 AODVgrayhole.host[12].wlan[0].mac rcvdPkFromHl:vector(packetBytes) ETV
attr interpolationmode none
attr source packetReceivedFromUpper
attr title "packets received from higher layer, vector(packetBytes)"
vector 262 AODVgrayhole.host[12].wlan[0].mac.queue packetPushed:vector(packetBytes) ETV
attr interpolationmode none
attr title "packet pushed, vector(packetBytes)"
vector 263 AODVgrayhole.host[12].wlan[0].mac.queue queueLength:vector ETV
attr interpolationmode sample-hold
attr source "count(packetPushed) - count(packetPopped) - count(packetRemoved) - count(packetDropped)"
attr title "queue length, vector"
vector 264 AODVgrayhole.host[12].wlan[0].mac.queue packetPopped:vector(packetBytes) ETV
attr interpolationmode none
attr title "packet popped, vector(packetBytes)"
vector 265 AODVgrayhole.host[12].wlan[0].mac.queue queueingTime:vector ETV
attr interpolationmode none
attr source queueingTime(packetPopped)
attr title "queueing times, vector"
attr unit s
vector 266 AODVgrayhole.host[12].wlan[0].mac sentDownPk:vector(packetBytes) ETV
attr interpolationmode none
attr source packetSentToLower
attr title "packets sent to lower layer, vector(packetBytes)"
vector 267 AODVgrayhole.host[4].udp packetSent:vector(packetBytes) ETV
attr interpolationmode none
attr source packetSent
attr title "packets sent, vector(packetBytes)"
vector 268 AODVgrayhole.host[4].wlan[0].mac rcvdPkFromHl:vector(packetBytes) ETV
attr interpolationmode none
attr source packetReceivedFromUpper
attr title "packets received from higher layer, vector(packetBytes)"
vector 269 AODVgrayhole.host[4].wlan[0].mac.queue packetPushed:vector(packetBytes) ETV
attr interpolationmode none
attr title "packet pushed, vector(packetBytes)"
vector 270 AODVgrayhole.host[4].wlan[0].mac.queue queueLength:vector ETV
attr interpolationmode sample-hold
attr source "count(packetPushed) - count(packetPopped) - count(packetRemoved) - count(packetDropped)"
attr title "queue length, vector"
vector 271 AODVgrayhole.host[4].wlan[0].mac.queue packetPopped:vector(packetBytes) ETV
attr interpolationmode none
attr title "packet popped, vector(packetBytes)"
vector 272 AODVgrayhole.host[4].wlan[0].mac.queue queueingTime:vector ETV
attr interpolationmode none
attr source queueingTime(packetPopped)
attr title "queueing times, vector"
attr unit s
vector 273 AODVgrayhole.host[4].wlan[0].mac sentDownPk:vector(packetBytes) ETV
attr interpolationmode none
attr source packetSentToLower
attr title "packets sent to lower layer, vector(packetBytes)"
vector 274 AODVgrayhole.host[17].udp packetReceived:vector(packetBytes) ETV
attr interpolationmode none
attr source packetReceived
attr title "packets received, vector(packetBytes)"
vector 275 AODVgrayhole.host[17].udp passedUpPk:vector(count) ETV
attr interpolationmode none
attr source packetSentToUpper
attr title "packets passed up, vector(count)"
vector 276 AODVgrayhole.host[13].udp packetSent:vector(packetBytes) ETV
attr interpolationmode none
attr source packetSent
attr title "packets sent, vector(packetBytes)"
vector 277 AODVgrayhole.host[13].wlan[0].mac rcvdPkFromHl:vector(packetBytes) ETV
attr interpolationmode none
attr source packetReceivedFromUpper
attr title "packets received from higher layer, vector(packetBytes)"
vector 278 AODVgrayhole.host[13].wlan[0].mac.queue packetPushed:vector(packetBytes) ETV
attr interpolationmode none
attr title "packet pushed, vector(packetBytes)"
vector 279 AODVgrayhole.host[13].wlan[0].mac.queue queueLength:vector ETV
attr interpolationmode sample-hold
attr source "count(packetPushed) - count(packetPopped) - count(packetRemoved) - count(packetDropped)"
attr title "queue length, vector"
vector 280 AODVgrayhole.host[13].wlan[0].mac.queue packetPopped:vector(packetBytes) ETV
attr interpolationmode none
attr title "packet popped, vector(packetBytes)"
vector 281 AODVgrayhole.host[13].wlan[0].mac.queue queueingTime:vector ETV
attr interpolationmode none
attr source queueingTime(packetPopped)
attr title "queueing times, vector"
attr unit s
vector 282 AODVgrayhole.host[13].wlan[0].mac sentDownPk:vector(packetBytes) ETV
attr interpolationmode none
attr source packetSentToLower
attr title "packets sent to lower layer, vector(packetBytes)"
vector 283 AODVgrayhole.host[11].wlan[0].mac packetDropNotAddressedToUs:vector(packetBytes) ETV
attr interpolationmode none
attr source packetDropReasonIsNotAddressedToUs(packetDropped)
attr title "packet drop: not addressed to us, vector(packetBytes)"
vector 284 AODVgrayhole.host[10].wlan[0].mac packetDropNotAddressedToUs:vector(packetBytes) ETV
attr interpolationmode none
attr source packetDropReasonIsNotAddressedToUs(packetDropped)
attr title "packet drop: not addressed to us, vector(packetBytes)"
vector 285 AODVgrayhole.host[4].wlan[0].mac packetDropNotAddressedToUs:vector(packetBytes) ETV
attr interpolationmode none
attr source packetDropReasonIsNotAddressedToUs(packetDropped)
attr title "packet drop: not addressed to us, vector(packetBytes)"
vector 286 AODVgrayhole.host[1].wlan[0].mac packetDropNotAddressedToUs:vector(packetBytes) ETV
attr interpolationmode none
attr source packetDropReasonIsNotAddressedToUs(packetDropped)
attr title "packet drop: not addressed to us, vector(packetBytes)"
vector 287 AODVgrayhole.sender.wlan[0].mac packetDropNotAddressedToUs:vector(packetBytes) ETV
attr interpolationmode none
attr source packetDropReasonIsNotAddressedToUs(packetDropped)
attr title "packet drop: not addressed to us, vector(packetBytes)"
vector 288 AODVgrayhole.host[12].wlan[0].mac packetDropNotAddressedToUs:vector(packetBytes) ETV
attr interpolationmode none
attr source packetDropReasonIsNotAddressedToUs(packetDropped)
attr title "packet drop: not addressed to us, vector(packetBytes)"
vector 289 AODVgrayhole.host[0].udp packetSent:vector(packetBytes) ETV
attr interpolationmode none
attr source packetSent
attr title "packets sent, vector(packetBytes)"
vector 290 AODVgrayhole.host[0].wlan[0].mac rcvdPkFromHl:vector(packetBytes) ETV
attr interpolationmode none
attr source packetReceivedFromUpper
attr title "packets received from higher layer, vector(packetBytes)"
vector 291 AODVgrayhole.host[0].wlan[0].mac.queue packetPushed:vector(packetBytes) ETV
attr interpolationmode none
attr title "packet pushed, vector(packetBytes)"
vector 292 AODVgrayhole.host[0].wlan[0].mac.queue queueLength:vector ETV
attr interpolationmode sample-hold
attr source "count(packetPushed) - count(packetPopped) - count(packetRemoved) - count(packetDropped)"
attr title "queue length, vector"
vector 293 AODVgrayhole.host[0].wlan[0].mac.queue packetPopped:vector(packetBytes) ETV
attr interpolationmode none
attr title "packet popped, vector(packetBytes)"
vector 294 AODVgrayhole.host[0].wlan[0].mac.queue queueingTime:vector ETV
attr interpolationmode none
attr source queueingTime(packetPopped)
attr title "queueing times, vector"
attr unit s
vector 295 AODVgrayhole.host[0].wlan[0].mac sentDownPk:vector(packetBytes) ETV
attr interpolationmode none
attr source packetSentToLower
attr title "packets sent to lower layer, vector(packetBytes)"
vector 296 AODVgrayhole.host[14].udp packetSent:vector(packetBytes) ETV
attr interpolationmode none
attr source packetSent
attr title "packets sent, vector(packetBytes)"
vector 297 AODVgrayhole.host[14].wlan[0].mac rcvdPkFromHl:vector(packetBytes) ETV
attr interpolationmode none
attr source packetReceivedFromUpper
attr title "packets received from higher layer, vector(packetBytes)"
vector 298 AODVgrayhole.host[14].wlan[0].mac.queue packetPushed:vector(packetBytes) ETV
attr interpolationmode none
attr title "packet pushed, vector(packetBytes)"
vector 299 AODVgrayhole.host[14].wlan[0].mac.queue queueLength:vector ETV
attr interpolationmode sample-hold
attr source "count(packetPushed) - count(packetPopped) - count(packetRemoved) - count(packetDropped)"
attr title "queue length, vector"
vector 300 AODVgrayhole.host[14].wlan[0].mac.queue packetPopped:vector(packetBytes) ETV
attr interpolationmode none
attr title "packet popped, vector(packetBytes)"
vector 301 AODVgrayhole.host[14].wlan[0].mac.queue queueingTime:vector ETV
attr interpolationmode none
attr source queueingTime(packetPopped)
attr title "queueing times, vector"
attr unit s
vector 302 AODVgrayhole.host[14].wlan[0].mac sentDownPk:vector(packetBytes) ETV
attr interpolationmode none
attr source packetSentToLower
attr title "packets sent to lower layer, vector(packetBytes)"
vector 303 AODVgrayhole.host[17].udp packetSent:vector(packetBytes) ETV
attr interpolationmode none
attr source packetSent
attr title "packets sent, vector(packetBytes)"
vector 304 AODVgrayhole.host[17].wlan[0].mac rcvdPkFromHl:vector(packetBytes) ETV
attr interpolationmode none
attr source packetReceivedFromUpper
attr title "packets received from higher layer, vector(packetBytes)"
vector 305 AODVgrayhole.host[17].wlan[0].mac.queue packetPushed:vector(packetBytes) ETV
attr interpolationmode none
attr title "packet pushed, vector(packetBytes)"
vector 306 AODVgrayhole.host[17].wlan[0].mac.queue queueLength:vector ETV
attr interpolationmode sample-hold
attr source "count(packetPushed) - count(packetPopped) - count(packetRemoved) - count(packetDropped)"
attr title "queue length, vector"
vector 307 AODVgrayhole.host[17].wlan[0].mac.queue packetPopped:vector(packetBytes) ETV
attr interpolationmode none
attr title "packet popped, vector(packetBytes)"
vector 308 AODVgrayhole.host[17].wlan[0].mac.queue queueingTime:vector ETV
attr interpolationmode none
attr source queueingTime(packetPopped)
attr title "queueing times, vector"
attr unit s
vector 309 AODVgrayhole.host[17].wlan[0].mac sentDownPk:vector(packetBytes) ETV
attr interpolationmode none
attr source packetSentToLower
attr title "packets sent to lower layer, vector(packetBytes)"
vector 310 AODVgrayhole.host[7].ipv4.arp arpReplySent:vector(packetBytes) ETV
attr source arpReplySent
attr title "ARP replies sent, vector(packetBytes)"
vector 311 AODVgrayhole.host[2].wlan[0].mac packetDropNotAddressedToUs:vector(packetBytes) ETV
attr interpolationmode none
attr source packetDropReasonIsNotAddressedToUs(packetDropped)
attr title "packet drop: not addressed to us, vector(packetBytes)"
vector 312 AODVgrayhole.host[7].ipv4.arp arpRequestSent:vector(packetBytes) ETV
attr source arpRequestSent
attr title "ARP request sent, vector(packetBytes)"
vector 313 AODVgrayhole.sender.ipv4.arp arpReplySent:vector(packetBytes) ETV
attr source arpReplySent
attr title "ARP replies sent, vector(packetBytes)"
vector 314 AODVgrayhole.ntu_Grayholer.wlan[0].mac packetDropNotAddressedToUs:vector(packetBytes) ETV
attr interpolationmode none
attr source packetDropReasonIsNotAddressedToUs(packetDropped)
attr title "packet drop: not addressed to us, vector(packetBytes)"
vector 315 AODVgrayhole.ntu_Grayholer.ipv4.ip rcvdPkt:vector ETV
attr interpolationmode none
attr title "Number of packet received, vector"
vector 316 AODVgrayhole.ntu_Grayholer.ipv4.ip droppings:vector ETV
attr interpolationmode none
attr title "Number of drops, vector"
vector 317 AODVgrayhole.host[5].ipv4.arp arpReplySent:vector(packetBytes) ETV
attr source arpReplySent
attr title "ARP replies sent, vector(packetBytes)"
vector 318 AODVgrayhole.host[3].wlan[0].mac packetDropNotAddressedToUs:vector(packetBytes) ETV
attr interpolationmode none
attr source packetDropReasonIsNotAddressedToUs(packetDropped)
attr title "packet drop: not addressed to us, vector(packetBytes)"
vector 319 AODVgrayhole.host[6].wlan[0].mac packetDropNotAddressedToUs:vector(packetBytes) ETV
attr interpolationmode none
attr source packetDropReasonIsNotAddressedToUs(packetDropped)
attr title "packet drop: not addressed to us, vector(packetBytes)"
vector 320 AODVgrayhole.host[13].wlan[0].mac packetDropNotAddressedToUs:vector(packetBytes) ETV
attr interpolationmode none
attr source packetDropReasonIsNotAddressedToUs(packetDropped)
attr title "packet drop: not addressed to us, vector(packetBytes)"
vector 321 AODVgrayhole.host[0].wlan[0].mac packetDropNotAddressedToUs:vector(packetBytes) ETV
attr interpolationmode none
attr source packetDropReasonIsNotAddressedToUs(packetDropped)
attr title "packet drop: not addressed to us, vector(packetBytes)"
vector 322 AODVgrayhole.host[14].wlan[0].mac packetDropNotAddressedToUs:vector(packetBytes) ETV
attr interpolationmode none
attr source packetDropReasonIsNotAddressedToUs(packetDropped)
attr title "packet drop: not addressed to us, vector(packetBytes)"
vector 323 AODVgrayhole.host[5].ipv4.arp arpRequestSent:vector(packetBytes) ETV
attr source arpRequestSent
attr title "ARP request sent, vector(packetBytes)"
vector 324 AODVgrayhole.host[15].ipv4.arp arpReplySent:vector(packetBytes) ETV
attr source arpReplySent
attr title "ARP replies sent, vector(packetBytes)"
vector 325 AODVgrayhole.receiver.wlan[0].mac packetDropNotAddressedToUs:vector(packetBytes) ETV
attr interpolationmode none
attr source packetDropReasonIsNotAddressedToUs(packetDropped)
attr title "packet drop: not addressed to us, vector(packetBytes)"
vector 326 AODVgrayhole.host[15].ipv4.arp arpRequestSent:vector(packetBytes) ETV
attr source arpRequestSent
attr title "ARP request sent, vector(packetBytes)"
vector 327 AODVgrayhole.host[5].wlan[0].mac packetDropNotAddressedToUs:vector(packetBytes) ETV
attr interpolationmode none
attr source packetDropReasonIsNotAddressedToUs(packetDropped)
attr title "packet drop: not addressed to us, vector(packetBytes)"
vector 328 AODVgrayhole.ntu_Grayholer.ipv4.arp arpReplySent:vector(packetBytes) ETV
attr source arpReplySent
attr title "ARP replies sent, vector(packetBytes)"
vector 329 AODVgrayhole.sender.ipv4.arp arpRequestSent:vector(packetBytes) ETV
attr source arpRequestSent
attr title "ARP request sent, vector(packetBytes)"
vector 330 AODVgrayhole.host[11].ipv4.arp arpReplySent:vector(packetBytes) ETV
attr source arpReplySent
attr title "ARP replies sent, vector(packetBytes)"
vector 331 AODVgrayhole.host[3].ipv4.arp arpReplySent:vector(packetBytes) ETV
attr source arpReplySent
attr title "ARP replies sent, vector(packetBytes)"
vector 332 AODVgrayhole.host[11].ipv4.arp arpRequestSent:vector(packetBytes) ETV
attr source arpRequestSent
attr title "ARP request sent, vector(packetBytes)"
vector 333 AODVgrayhole.host[3].ipv4.arp arpRequestSent:vector(packetBytes) ETV
attr source arpRequestSent
attr title "ARP request sent, vector(packetBytes)"
vector 334 AODVgrayhole.host[9].ipv4.arp arpReplySent:vector(packetBytes) ETV
attr source arpReplySent
attr title "ARP replies sent, vector(packetBytes)"
vector 335 AODVgrayhole.host[16].ipv4.arp arpReplySent:vector(packetBytes) ETV
attr source arpReplySent
attr title "ARP replies sent, vector(packetBytes)"
vector 336 AODVgrayhole.host[13].ipv4.arp arpReplySent:vector(packetBytes) ETV
attr source arpReplySent
attr title "ARP replies sent, vector(packetBytes)"
vector 337 AODVgrayhole.host[9].ipv4.arp arpRequestSent:vector(packetBytes) ETV
attr source arpRequestSent
attr title "ARP request sent, vector(packetBytes)"
vector 338 AODVgrayhole.host[16].ipv4.arp arpRequestSent:vector(packetBytes) ETV
attr source arpRequestSent
attr title "ARP request sent, vector(packetBytes)"
vector 339 AODVgrayhole.receiver.app[0] packetReceived:vector(packetBytes) ETV
attr interpolationmode none
attr source packetReceived
attr title "packets received, vector(packetBytes)"
vector 340 AODVgrayhole.receiver.app[0] throughput:vector ETV
attr source throughput(packetReceived)
attr title "throughput, vector"
attr unit bps
vector 341 AODVgrayhole.receiver.app[0] endToEndDelay:vector ETV
attr interpolationmode none
attr source dataAge(packetReceived)
attr title "end-to-end delay, vector"
attr unit s
vector 342 AODVgrayhole.receiver.app[0] rcvdPkSeqNo:vector ETV
attr interpolationmode none
attr source appPkSeqNo(packetReceived)
attr title "received packet sequence number, vector"
vector 343 AODVgrayhole.host[2].ipv4.arp arpRequestSent:vector(packetBytes) ETV
attr source arpRequestSent
attr title "ARP request sent, vector(packetBytes)"
vector 344 AODVgrayhole.host[4].ipv4.arp arpReplySent:vector(packetBytes) ETV
attr source arpReplySent
attr title "ARP replies sent, vector(packetBytes)"
vector 345 AODVgrayhole.host[4].ipv4.arp arpRequestSent:vector(packetBytes) ETV
attr source arpRequestSent
attr title "ARP request sent, vector(packetBytes)"
vector 346 AODVgrayhole.host[8].ipv4.arp arpReplySent:vector(packetBytes) ETV
attr source arpReplySent
attr title "ARP replies sent, vector(packetBytes)"
vector 347 AODVgrayhole.host[8].ipv4.arp arpRequestSent:vector(packetBytes) ETV
attr source arpRequestSent
attr title "ARP request sent, vector(packetBytes)"
vector 348 AODVgrayhole.host[1].ipv4.arp arpReplySent:vector(packetBytes) ETV
attr source arpReplySent
attr title "ARP replies sent, vector(packetBytes)"
vector 349 AODVgrayhole.host[1].ipv4.arp arpRequestSent:vector(packetBytes) ETV
attr source arpRequestSent
attr title "ARP request sent, vector(packetBytes)"
vector 350 AODVgrayhole.host[2].ipv4.ip packetDropHopLimitReached:vector(packetBytes) ETV
attr interpolationmode none
attr source packetDropReasonIsHopLimitReached(packetDropped)
attr title "packet drop: hop limit reached, vector(packetBytes)"
vector 351 AODVgrayhole.host[4].ipv4.ip packetDropAddressResolutionFailed:vector(packetBytes) ETV
attr interpolationmode none
attr source packetDropReasonIsAddressResolutionFailed(packetDropped)
attr title "packet drop: address resolution failed, vector(packetBytes)"
vector 352 AODVgrayhole.host[1].ipv4.ip packetDropAddressResolutionFailed:vector(packetBytes) ETV
attr interpolationmode none
attr source packetDropReasonIsAddressResolutionFailed(packetDropped)
attr title "packet drop: address resolution failed, vector(packetBytes)"
vector 353 AODVgrayhole.receiver.ipv4.arp arpReplySent:vector(packetBytes) ETV
attr source arpReplySent
attr title "ARP replies sent, vector(packetBytes)"
vector 354 AODVgrayhole.sender.app[0] throughput:vector ETV
attr source throughput(packetReceived)
attr title "throughput, vector"
attr unit bps
0	0	0	0
0	0	0	0
0	0	0	4
1	0	0	0
1	0	0	0
1	0	0	4
2	0	0	0
2	0	0	0
2	0	0	4
3	0	0	0
3	0	0	0
3	0	0	4
4	0	0	0
4	0	0	0
4	0	0	4
5	0	0	0
5	0	0	0
5	0	0	4
6	0	0	0
6	0	0	0
6	0	0	4
7	0	0	0
7	0	0	0
7	0	0	4
8	0	0	0
8	0	0	0
8	0	0	4
9	0	0	0
9	0	0	0
9	0	0	4
10	0	0	0
10	0	0	0
10	0	0	4
11	0	0	0
11	0	0	0
11	0	0	4
12	0	0	0
12	0	0	0
12	0	0	4
13	0	0	0
13	0	0	0
13	0	0	4
14	0	0	0
14	0	0	0
14	0	0	4
15	0	0	0
15	0	0	0
15	0	0	4
16	0	0	0
16	0	0	0
16	0	0	4
16	25402	25.5	0
16	40669	40	0
17	0	0	0
17	0	0	0
17	0	0	4
18	0	0	0
18	0	0	0
18	0	0	4
19	0	0	0
19	0	0	0
19	0	0	4
20	0	0	0
20	0	0	0
20	0	0	4
21	0	0	1
21	1168	0.327899571358	3
21	1255	0.328247571358	2
21	1293	0.328248535773	3
21	1427	0.328500535773	2
21	1457	0.328683185151	1
21	1493	0.328775554762	3
21	1522	0.329123554762	1
21	1579	0.329262270622	3
21	1665	0.329610270622	1
21	2151	0.805681410113	3
21	2212	0.806029410113	1
21	2551	0.808337295544	3
21	2613	0.808685295544	2
21	2677	0.808979827587	1
21	2801	0.809330184898	3
21	2921	0.809678184898	1
21	3057	0.809935703853	3
21	3259	0.810283703853	2
21	3304	0.810382084967	1
21	3523	0.812822002455	3
21	3584	0.813170002455	1
21	4381	1.328248535773	3
21	4408	1.328500535773	1
21	4421	1.328501097878	3
21	4459	1.328753097878	1
21	4482	1.328754062293	3
21	4513	1.329086062293	1
21	4523	1.329086825553	3
21	4561	1.329418825553	1
21	4590	1.330351049381	3
21	4622	1.330603049381	1
21	4655	1.330603912364	3
21	4695	1.330855912364	1
21	4708	1.330856400981	3
21	4735	1.331188400981	1
21	4756	1.331189076781	3
21	4789	1.331521076781	1
21	4828	1.335060432397	3
21	4874	1.335312432397	1
21	4950	1.335565618609	3
21	4987	1.335897618609	1
21	5006	1.335898211715	3
21	5042	1.336230211715	1
21	5260	1.339647579002	3
21	5330	1.339899579002	1
21	5421	1.340152627612	3
21	5484	1.340484627612	1
21	5567	1.341268382251	3
21	5642	1.341616382251	1
21	5662	1.341616766684	3
21	5727	1.341868766684	1
21	5759	1.342728024784	3
21	5818	1.343076024784	1
21	6166	1.344701119706	3
21	6224	1.345049119706	1
21	6269	1.345050392186	3
21	6322	1.345302392186	1
21	6333	1.345302677604	3
21	6425	1.345554677604	1
21	6451	1.345555950084	3
21	6478	1.345887950084	1
21	6624	1.34633514001	3
21	6739	1.34668314001	1
21	6796	1.348073395265	3
21	6882	1.348325395265	1
21	6910	1.348326250791	3
21	6998	1.348578250791	1
21	8232	2.01131591375	3
21	8306	2.01166391375	1
21	8739	2.332549250045	3
21	8797	2.332897250045	1
21	8892	2.33413589001	3
21	8966	2.33448389001	2
21	8996	2.334511713501	1
21	9025	2.334513182767	3
21	9082	2.334765182767	1
21	9088	2.334765232771	3
21	9200	2.335017232771	2
21	9227	2.335018702037	3
21	9435	2.335350702037	1
21	9561	2.336446663605	3
21	9721	2.336794663605	2
21	9738	2.336829396729	1
21	10117	2.341616766684	3
21	10144	2.341868766684	1
21	10350	2.348073395265	3
21	10375	2.348325395265	1
21	10405	2.348326250791	3
21	10447	2.348578250791	1
21	10451	2.348578318253	3
21	10485	2.348910318253	1
21	10524	2.349706021711	3
21	10561	2.349958021711	1
21	10579	2.349958406144	3
21	10704	2.350290406144	1
21	10774	2.438392463648	3
21	10803	2.438756463648	1
21	10972	3.349706021711	3
21	11007	3.349958021711	1
21	11086	3.350211437831	3
21	11116	3.350543437831	1
21	11143	3.350544145891	3
21	11172	3.350876145891	1
21	15187	13.007348774741	3
21	15281	13.007696774741	1
21	15382	13.008994956555	3
21	15477	13.009342956555	1
21	16755	14.324389054811	3
21	16850	14.324737054811	1
21	16902	14.324837609947	3
21	16948	14.325185609947	2
21	16997	14.325187079213	3
21	17094	14.325519079213	1
21	17357	14.326726194174	3
21	17440	14.327074194174	2
21	17562	14.327415024965	1
21	17581	14.327501546665	3
21	17738	14.327849546665	2
21	17856	14.328017686938	1
21	17950	14.328332086391	3
21	18036	14.328680086391	1
21	18122	14.427036119692	3
21	18151	14.427400119692	1
21	18724	14.80405222667	3
21	18855	14.80440022667	1
21	18972	14.805515652206	3
21	19101	14.805863652206	2
21	19142	14.805865121472	3
21	19214	14.806197121472	2
21	19253	14.806200204657	1
21	19336	14.807261553639	3
21	19390	14.807609553639	2
21	19441	14.807943216504	1
21	19521	14.808880454221	3
21	19591	14.809228454221	1
21	19981	14.813806023049	3
21	20095	14.814154023049	1
21	20351	14.816152502423	3
21	20449	14.816500502423	1
21	20584	14.908771485851	3
21	20613	14.909103485851	1
21	20851	15.012284471977	3
21	20901	15.012632471977	1
21	20945	15.012720077251	3
21	21006	15.013068077251	1
21	21315	15.328769367115	3
21	21376	15.329117367115	1
21	21399	15.329213821735	3
21	21436	15.329561821735	1
21	21474	15.32956278615	3
21	21554	15.32989478615	2
21	21623	15.330084075447	1
21	21649	15.330625271268	3
21	21695	15.330973271268	1
21	21801	15.331335303274	3
21	21876	15.331667303274	1
21	21989	15.332149454291	3
21	22093	15.332497454291	2
21	22143	15.332559499305	1
21	22633	15.335414015437	3
21	22669	15.335746015437	1
21	22797	15.338047064047	3
21	22838	15.340347064047	1
21	22851	15.340347552664	3
21	22885	15.342647552664	1
21	23241	17.006902670741	3
21	23277	17.009202670741	1
21	23290	17.009203159358	3
21	23317	17.011503159358	1
21	23571	18.006902670741	3
21	23607	18.009202670741	1
21	23620	18.009203159358	3
21	23647	18.011503159358	1
21	23974	19.006902670741	3
21	24010	19.009202670741	1
21	24023	19.009203159358	3
21	24050	19.011503159358	1
21	24269	20.006902670741	3
21	24305	20.009202670741	1
21	24318	20.009203159358	3
21	24345	20.011503159358	1
21	24596	21.006902670741	3
21	24632	21.009202670741	1
21	24645	21.009203159358	3
21	24672	21.011503159358	1
21	25026	23.006902670741	3
21	25063	23.009202670741	1
21	25076	23.009203159358	3
21	25103	23.011503159358	1
21	25606	26.006252375384	3
21	25643	26.006584375384	1
21	25940	26.011125054862	3
21	26004	26.011473054862	1
21	26133	26.011806103472	3
21	26392	26.014106103472	2
21	26426	26.014167421812	1
21	26538	26.015679244128	3
21	26595	26.016027244128	1
21	26775	26.112757592645	3
21	26804	26.113121592645	1
21	26917	26.115283616739	3
21	27012	26.115583616739	1
21	27669	27.011726419076	3
21	27703	27.011978419076	1
21	28269	27.324013018234	3
21	28333	27.324265018234	1
21	28528	27.325785520285	3
21	28582	27.326133520285	1
21	28622	27.326134792765	3
21	28704	27.326466792765	1
21	28927	27.327620789891	3
21	28976	27.327872789891	1
21	29057	27.329981712602	3
21	29089	27.330329712602	1
21	29133	27.330579955349	3
21	29191	27.330927955349	1
21	30078	27.809389592823	3
21	30110	27.809737592823	1
21	30148	27.809738557238	3
21	30178	27.810070557238	1
21	30202	27.810857216534	3
21	30248	27.811205216534	2
21	30299	27.811388478356	1
21	30447	27.814791718098	3
21	30473	27.815043718098	1
21	30559	27.815297368708	3
21	30583	27.815629368708	1
21	30689	27.820523110332	3
21	30785	27.820855110332	1
21	31383	27.838549533072	3
21	31410	27.840849533072	1
21	31510	27.920523110332	3
21	31537	27.920855110332	1
21	31556	27.920855912564	3
21	31594	27.921251912564	1
21	32037	28.009203095475	3
21	32061	28.011503095475	1
21	32104	28.324013018234	3
21	32144	28.324265018234	1
21	32216	28.32451828845	3
21	32251	28.32485028845	1
21	32272	28.324850923558	3
21	32329	28.325182923558	1
21	32835	29.006902666548	3
21	32867	29.009202666548	1
21	33743	29.021961806014	3
21	33778	29.024261806014	1
21	33962	29.031164332499	3
21	33997	29.033464332499	1
21	34175	29.040366858984	3
21	34210	29.042666858984	1
21	34388	29.049569385469	3
21	34423	29.051869385469	1
21	34601	29.058771911954	3
21	34636	29.061071911954	1
21	34820	29.067974438439	3
21	34855	29.070274438439	1
21	35033	29.077176964924	3
21	35069	29.079476964924	1
21	35450	30.006902666548	3
21	35488	30.009202666548	1
21	35771	30.016105193033	3
21	35896	30.018405193033	1
21	35930	30.117664918011	3
21	35990	30.118028918011	1
21	37280	31.328162455711	3
21	37424	31.328510455711	1
21	37673	31.330014268898	3
21	37762	31.330362268898	1
21	37794	31.330363541378	3
21	37820	31.330695541378	1
21	37850	31.330894445395	3
21	37908	31.331242445395	1
21	37981	31.331992203212	3
21	38002	31.332340203212	1
21	38052	31.332584585982	3
21	38100	31.332916585982	2
21	38133	31.333208627756	1
21	38516	31.344471448394	3
21	38541	31.346771448394	1
21	38833	32.006902719994	3
21	38857	32.009202719994	1
21	39083	33.006902719994	3
21	39107	33.009202719994	1
21	39334	34.006902719994	3
21	39358	34.009202719994	1
21	39654	35.006902719994	3
21	39678	35.009202719994	1
21	39897	36.006902719994	3
21	39921	36.009202719994	1
21	40144	37.006902719994	3
21	40168	37.009202719994	1
21	40380	38.006902719994	3
21	40404	38.009202719994	1
21	40617	39.006902719994	3
21	40641	39.009202719994	1
21	40858	40.006902719994	3
21	40883	40.009202719994	1
21	41100	41.006902719994	3
21	41126	41.009202719994	1
21	41342	42.006902719994	3
21	41367	42.009202719994	1
21	41585	43.006902719994	3
21	41610	43.009202719994	1
21	41825	44.006902719994	3
21	41850	44.009202719994	1
21	42074	45.006902719994	3
21	42099	45.009202719994	1
21	42338	46.006902719994	3
21	42363	46.009202719994	1
21	42590	47.006902719994	3
21	42615	47.009202719994	1
21	42842	48.006902719994	3
21	42867	48.009202719994	1
21	43090	49.006902719994	3
21	43115	49.009202719994	1
21	43409	50.006902719994	3
21	43434	50.009202719994	1
21	43648	51.006902719994	3
21	43673	51.009202719994	1
21	43901	52.006902719994	3
21	43926	52.009202719994	1
21	44141	53.006902719994	3
21	44166	53.009202719994	1
21	44384	54.006902719994	3
21	44409	54.009202719994	1
21	44623	55.006902719994	3
21	44648	55.009202719994	1
21	44866	56.006902719994	3
21	44891	56.009202719994	1
21	45105	57.006902719994	3
21	45130	57.009202719994	1
21	45348	58.006902719994	3
21	45373	58.009202719994	1
21	45587	59.006902719994	3
21	45612	59.009202719994	1
21	45830	60.006902719994	3
21	45855	60.009202719994	1
21	46069	61.006902719994	3
21	46094	61.009202719994	1
21	46312	62.006902719994	3
21	46337	62.009202719994	1
21	46551	63.006902719994	3
21	46576	63.009202719994	1
21	46794	64.006902719994	3
21	46819	64.009202719994	1
21	47033	65.006902719994	3
21	47058	65.009202719994	1
21	47276	66.006902719994	3
21	47301	66.009202719994	1
21	47515	67.006902719994	3
21	47540	67.009202719994	1
21	47758	68.006902719994	3
21	47783	68.009202719994	1
21	47997	69.006902719994	3
21	48022	69.009202719994	1
21	48240	70.006902719994	3
21	48265	70.009202719994	1
21	48479	71.006902719994	3
21	48504	71.009202719994	1
21	48722	72.006902719994	3
21	48747	72.009202719994	1
21	48961	73.006902719994	3
21	48986	73.009202719994	1
21	49204	74.006902719994	3
21	49229	74.009202719994	1
[...]
354	74922	65.9	0
354	74922	66	0
354	74922	66.1	0
354	74922	66.2	0
354	74922	66.3	0
354	74922	66.4	0
354	74922	66.5	0
354	74922	66.6	0
354	74922	66.7	0
354	74922	66.8	0
354	74922	66.9	0
354	74922	67	0
354	74922	67.1	0
354	74922	67.2	0
354	74922	67.3	0
354	74922	67.4	0
354	74922	67.5	0
354	74922	67.6	0
354	74922	67.7	0
354	74922	67.8	0
354	74922	67.9	0
354	74922	68	0
354	74922	68.1	0
354	74922	68.2	0
354	74922	68.3	0
354	74922	68.4	0
354	74922	68.5	0
354	74922	68.6	0
354	74922	68.7	0
354	74922	68.8	0
354	74922	68.9	0
354	74922	69	0
354	74922	69.1	0
354	74922	69.2	0
354	74922	69.3	0
354	74922	69.4	0
354	74922	69.5	0
354	74922	69.6	0
354	74922	69.7	0
354	74922	69.8	0
354	74922	69.9	0
354	74922	70	0
354	74922	70.1	0
354	74922	70.2	0
354	74922	70.3	0
354	74922	70.4	0
354	74922	70.5	0
354	74922	70.6	0
354	74922	70.7	0
354	74922	70.8	0
354	74922	70.9	0
354	74922	71	0
354	74922	71.1	0
354	74922	71.2	0
354	74922	71.3	0
354	74922	71.4	0
354	74922	71.5	0
354	74922	71.6	0
354	74922	71.7	0
354	74922	71.8	0
354	74922	71.9	0
354	74922	72	0
354	74922	72.1	0
354	74922	72.2	0
354	74922	72.3	0
354	74922	72.4	0
354	74922	72.5	0
354	74922	72.6	0
354	74922	72.7	0
354	74922	72.8	0
354	74922	72.9	0
354	74922	73	0
354	74922	73.1	0
354	74922	73.2	0
354	74922	73.3	0
354	74922	73.4	0
354	74922	73.5	0
354	74922	73.6	0
354	74922	73.7	0
354	74922	73.8	0
354	74922	73.9	0
354	74922	74	0
354	74922	74.1	0
354	74922	74.2	0
354	74922	74.3	0
354	74922	74.4	0
354	74922	74.5	0
354	74922	74.6	0
354	74922	74.7	0
354	74922	74.8	0
354	74922	74.9	0
354	74922	75	0
354	74922	75.1	0
354	74922	75.2	0
354	74922	75.3	0
354	74922	75.4	0
354	74922	75.5	0
354	74922	75.6	0
354	74922	75.7	0
354	74922	75.8	0
354	74922	75.9	0
354	74922	76	0
354	74922	76.1	0
354	74922	76.2	0
354	74922	76.3	0
354	74922	76.4	0
354	74922	76.5	0
354	74922	76.6	0
354	74922	76.7	0
354	74922	76.8	0
354	74922	76.9	0
354	74922	77	0
354	74922	77.1	0
354	74922	77.2	0
354	74922	77.3	0
354	74922	77.4	0
354	74922	77.5	0
354	74922	77.6	0
354	74922	77.7	0
354	74922	77.8	0
354	74922	77.9	0
354	74922	78	0
354	74922	78.1	0
354	74922	78.2	0
354	74922	78.3	0
354	74922	78.4	0
354	74922	78.5	0
354	74922	78.6	0
354	74922	78.7	0
354	74922	78.8	0
354	74922	78.9	0
354	74922	79	0
354	74922	79.1	0
354	74922	79.2	0
354	74922	79.3	0
354	74922	79.4	0
354	74922	79.5	0
354	74922	79.6	0
354	74922	79.7	0
354	74922	79.8	0
354	74922	79.9	0
354	74922	80	0
354	74922	80.1	0
354	74922	80.2	0
354	74922	80.3	0
354	74922	80.4	0
354	74922	80.5	0
354	74922	80.6	0
354	74922	80.7	0
354	74922	80.8	0
354	74922	80.9	0
354	74922	81	0
354	74922	81.1	0
354	74922	81.2	0
354	74922	81.3	0
354	74922	81.4	0
354	74922	81.5	0
354	74922	81.6	0
354	74922	81.7	0
354	74922	81.8	0
354	74922	81.9	0
354	74922	82	0
354	74922	82.1	0
354	74922	82.2	0
354	74922	82.3	0
354	74922	82.4	0
354	74922	82.5	0
354	74922	82.6	0
354	74922	82.7	0
354	74922	82.8	0
354	74922	82.9	0
354	74922	83	0
354	74922	83.1	0
354	74922	83.2	0
354	74922	83.3	0
354	74922	83.4	0
354	74922	83.5	0
354	74922	83.6	0
354	74922	83.7	0
354	74922	83.8	0
354	74922	83.9	0
354	74922	84	0
354	74922	84.1	0
354	74922	84.2	0
354	74922	84.3	0
354	74922	84.4	0
354	74922	84.5	0
354	74922	84.6	0
354	74922	84.7	0
354	74922	84.8	0
354	74922	84.9	0
354	74922	85	0
354	74922	85.1	0
354	74922	85.2	0
354	74922	85.3	0
354	74922	85.4	0
354	74922	85.5	0
354	74922	85.6	0
354	74922	85.7	0
354	74922	85.8	0
354	74922	85.9	0
354	74922	86	0
354	74922	86.1	0
354	74922	86.2	0
354	74922	86.3	0
354	74922	86.4	0
354	74922	86.5	0
354	74922	86.6	0
354	74922	86.7	0
354	74922	86.8	0
354	74922	86.9	0
354	74922	87	0
354	74922	87.1	0
354	74922	87.2	0
354	74922	87.3	0
354	74922	87.4	0
354	74922	87.5	0
354	74922	87.6	0
354	74922	87.7	0
354	74922	87.8	0
354	74922	87.9	0
354	74922	88	0
354	74922	88.1	0
354	74922	88.2	0
354	74922	88.3	0
354	74922	88.4	0
354	74922	88.5	0
354	74922	88.6	0
354	74922	88.7	0
354	74922	88.8	0
354	74922	88.9	0
354	74922	89	0
354	74922	89.1	0
354	74922	89.2	0
354	74922	89.3	0
354	74922	89.4	0
354	74922	89.5	0
354	74922	89.6	0
354	74922	89.7	0
354	74922	89.8	0
354	74922	89.9	0
354	74922	90	0
354	74922	90.1	0
354	74922	90.2	0
354	74922	90.3	0
354	74922	90.4	0
354	74922	90.5	0
354	74922	90.6	0
354	74922	90.7	0
354	74922	90.8	0
354	74922	90.9	0
354	74922	91	0
354	74922	91.1	0
354	74922	91.2	0
354	74922	91.3	0
354	74922	91.4	0
354	74922	91.5	0
354	74922	91.6	0
354	74922	91.7	0
354	74922	91.8	0
354	74922	91.9	0
354	74922	92	0
354	74922	92.1	0
354	74922	92.2	0
354	74922	92.3	0
354	74922	92.4	0
354	74922	92.5	0
354	74922	92.6	0
354	74922	92.7	0
354	74922	92.8	0
354	74922	92.9	0
354	74922	93	0
354	74922	93.1	0
354	74922	93.2	0
354	74922	93.3	0
354	74922	93.4	0
354	74922	93.5	0
354	74922	93.6	0
354	74922	93.7	0
354	74922	93.8	0
354	74922	93.9	0
354	74922	94	0
354	74922	94.1	0
354	74922	94.2	0
354	74922	94.3	0
354	74922	94.4	0
354	74922	94.5	0
354	74922	94.6	0
354	74922	94.7	0
354	74922	94.8	0
354	74922	94.9	0
354	74922	95	0
354	74922	95.1	0
354	74922	95.2	0
354	74922	95.3	0
354	74922	95.4	0
354	74922	95.5	0
354	74922	95.6	0
354	74922	95.7	0
354	74922	95.8	0
354	74922	95.9	0
354	74922	96	0
354	74922	96.1	0
354	74922	96.2	0
354	74922	96.3	0
354	74922	96.4	0
354	74922	96.5	0
354	74922	96.6	0
354	74922	96.7	0
354	74922	96.8	0
354	74922	96.9	0
354	74922	97	0
354	74922	97.1	0
354	74922	97.2	0
354	74922	97.3	0
354	74922	97.4	0
354	74922	97.5	0
354	74922	97.6	0
354	74922	97.7	0
354	74922	97.8	0
354	74922	97.9	0
354	74922	98	0
354	74922	98.1	0
354	74922	98.2	0
354	74922	98.3	0
354	74922	98.4	0
354	74922	98.5	0
354	74922	98.6	0
354	74922	98.7	0
354	74922	98.8	0
354	74922	98.9	0
354	74922	99	0
354	74922	99.1	0
354	74922	99.2	0
354	74922	99.3	0
354	74922	99.4	0
354	74922	99.5	0
354	74922	99.6	0
354	74922	99.7	0
354	74922	99.8	0
354	74922	99.9	0
354	74922	100	0
354	74922	100.1	0
354	74922	100.2	0
354	74922	100.3	0
354	74922	100.4	0
354	74922	100.5	0
354	74922	100.6	0
354	74922	100.7	0
354	74922	100.8	0
354	74922	100.9	0
354	74922	101	0
354	74922	101.1	0
354	74922	101.2	0
354	74922	101.3	0
354	74922	101.4	0
354	74922	101.5	0
354	74922	101.6	0
354	74922	101.7	0
354	74922	101.8	0
354	74922	101.9	0
354	74922	102	0
354	74922	102.1	0
354	74922	102.2	0
354	74922	102.3	0
354	74922	102.4	0
354	74922	102.5	0
354	74922	102.6	0
354	74922	102.7	0
354	74922	102.8	0
354	74922	102.9	0
354	74922	103	0
354	74922	103.1	0
354	74922	103.2	0
354	74922	103.3	0
354	74922	103.4	0
354	74922	103.5	0
354	74922	103.6	0
354	74922	103.7	0
354	74922	103.8	0
354	74922	103.9	0
354	74922	104	0
354	74922	104.1	0
354	74922	104.2	0
354	74922	104.3	0
354	74922	104.4	0
354	74922	104.5	0
354	74922	104.6	0
354	74922	104.7	0
354	74922	104.8	0
354	74922	104.9	0
354	74922	105	0
354	74922	105.1	0
354	74922	105.2	0
354	74922	105.3	0
354	74922	105.4	0
354	74922	105.5	0
354	74922	105.6	0
354	74922	105.7	0
354	74922	105.8	0
354	74922	105.9	0
354	74922	106	0
354	74922	106.1	0
354	74922	106.2	0
354	74922	106.3	0
354	74922	106.4	0
354	74922	106.5	0
354	74922	106.6	0
354	74922	106.7	0
354	74922	106.8	0
354	74922	106.9	0
354	74922	107	0
354	74922	107.1	0
354	74922	107.2	0
354	74922	107.3	0
354	74922	107.4	0
354	74922	107.5	0
354	74922	107.6	0
354	74922	107.7	0
354	74922	107.8	0
354	74922	107.9	0
354	74922	108	0
354	74922	108.1	0
354	74922	108.2	0
354	74922	108.3	0
354	74922	108.4	0
354	74922	108.5	0
354	74922	108.6	0
354	74922	108.7	0
354	74922	108.8	0
354	74922	108.9	0
354	74922	109	0
354	74922	109.1	0
354	74922	109.2	0
354	74922	109.3	0
354	74922	109.4	0
354	74922	109.5	0
354	74922	109.6	0
354	74922	109.7	0
354	74922	109.8	0
354	74922	109.9	0
354	74922	110	0
354	74922	110.1	0
354	74922	110.2	0
354	74922	110.3	0
354	74922	110.4	0
354	74922	110.5	0
354	74922	110.6	0
354	74922	110.7	0
354	74922	110.8	0
354	74922	110.9	0
354	74922	111	0
354	74922	111.1	0
354	74922	111.2	0
354	74922	111.3	0
354	74922	111.4	0
354	74922	111.5	0
354	74922	111.6	0
354	74922	111.7	0
354	74922	111.8	0
354	74922	111.9	0
354	74922	112	0
354	74922	112.1	0
354	74922	112.2	0
354	74922	112.3	0
354	74922	112.4	0
354	74922	112.5	0
354	74922	112.6	0
354	74922	112.7	0
354	74922	112.8	0
354	74922	112.9	0
354	74922	113	0
354	74922	113.1	0
354	74922	113.2	0
354	74922	113.3	0
354	74922	113.4	0
354	74922	113.5	0
354	74922	113.6	0
354	74922	113.7	0
354	74922	113.8	0
354	74922	113.9	0
354	74922	114	0
354	74922	114.1	0
354	74922	114.2	0
354	74922	114.3	0
354	74922	114.4	0
354	74922	114.5	0
354	74922	114.6	0
354	74922	114.7	0
354	74922	114.8	0
354	74922	114.9	0
354	74922	115	0
354	74922	115.1	0
354	74922	115.2	0
354	74922	115.3	0
354	74922	115.4	0
354	74922	115.5	0
354	74922	115.6	0
354	74922	115.7	0
354	74922	115.8	0
354	74922	115.9	0
354	74922	116	0
354	74922	116.1	0
354	74922	116.2	0
354	74922	116.3	0
354	74922	116.4	0
354	74922	116.5	0
354	74922	116.6	0
354	74922	116.7	0
354	74922	116.8	0
354	74922	116.9	0
354	74922	117	0
354	74922	117.1	0
354	74922	117.2	0
354	74922	117.3	0
354	74922	117.4	0
354	74922	117.5	0
354	74922	117.6	0
354	74922	117.7	0
354	74922	117.8	0
354	74922	117.9	0
354	74922	118	0
354	74922	118.1	0
354	74922	118.2	0
354	74922	118.3	0
354	74922	118.4	0
354	74922	118.5	0
354	74922	118.6	0
354	74922	118.7	0
354	74922	118.8	0
354	74922	118.9	0
354	74922	119	0
354	74922	119.1	0
354	74922	119.2	0
354	74922	119.3	0
354	74922	119.4	0
354	74922	119.5	0
354	74922	119.6	0
354	74922	119.7	0
354	74922	119.8	0
354	74922	119.9	0
354	74922	120	0
354	74922	120.1	0
354	74922	120.2	0
354	74922	120.3	0
354	74922	120.4	0
354	74922	120.5	0
354	74922	120.6	0
354	74922	120.7	0
354	74922	120.8	0
354	74922	120.9	0
354	74922	121	0
354	74922	121.1	0
354	74922	121.2	0
354	74922	121.3	0
354	74922	121.4	0
354	74922	121.5	0
354	74922	121.6	0
354	74922	121.7	0
354	74922	121.8	0
354	74922	121.9	0
354	74922	122	0
354	74922	122.1	0
354	74922	122.2	0
354	74922	122.3	0
354	74922	122.4	0
354	74922	122.5	0
354	74922	122.6	0
354	74922	122.7	0
354	74922	122.8	0
354	74922	122.9	0
354	74922	123	0
354	74922	123.1	0
354	74922	123.2	0
354	74922	123.3	0
354	74922	123.4	0
354	74922	123.5	0
354	74922	123.6	0
354	74922	123.7	0
354	74922	123.8	0
354	74922	123.9	0
354	74922	124	0
354	74922	124.1	0
354	74922	124.2	0
354	74922	124.3	0
354	74922	124.4	0
354	74922	124.5	0
354	74922	124.6	0
354	74922	124.7	0
354	74922	124.8	0
354	74922	124.9	0
354	74922	125	0
354	74922	125.1	0
354	74922	125.2	0
354	74922	125.3	0
354	74922	125.4	0
354	74922	125.5	0
354	74922	125.6	0
354	74922	125.7	0
354	74922	125.8	0
354	74922	125.9	0
354	74922	126	0
354	74922	126.1	0
354	74922	126.2	0
354	74922	126.3	0
354	74922	126.4	0
354	74922	126.5	0
354	74922	126.6	0
354	74922	126.7	0
354	74922	126.8	0
354	74922	126.9	0
354	74922	127	0
354	74922	127.1	0
354	74922	127.2	0
354	74922	127.3	0
354	74922	127.4	0
354	74922	127.5	0
354	74922	127.6	0
354	74922	127.7	0
354	74922	127.8	0
354	74922	127.9	0
354	74922	128	0
354	74922	128.1	0
354	74922	128.2	0
354	74922	128.3	0
354	74922	128.4	0
354	74922	128.5	0
354	74922	128.6	0
354	74922	128.7	0
354	74922	128.8	0
354	74922	128.9	0
354	74922	129	0
354	74922	129.1	0
354	74922	129.2	0
354	74922	129.3	0
354	74922	129.4	0
354	74922	129.5	0
354	74922	129.6	0
354	74922	129.7	0
354	74922	129.8	0
354	74922	129.9	0
354	74922	130	0
354	74922	130.1	0
354	74922	130.2	0
354	74922	130.3	0
354	74922	130.4	0
354	74922	130.5	0
354	74922	130.6	0
354	74922	130.7	0
354	74922	130.8	0
354	74922	130.9	0
354	74922	131	0
354	74922	131.1	0
354	74922	131.2	0
354	74922	131.3	0
354	74922	131.4	0
354	74922	131.5	0
354	74922	131.6	0
354	74922	131.7	0
354	74922	131.8	0
354	74922	131.9	0
354	74922	132	0
354	74922	132.1	0
354	74922	132.2	0
354	74922	132.3	0
354	74922	132.4	0
354	74922	132.5	0
354	74922	132.6	0
354	74922	132.7	0
354	74922	132.8	0
354	74922	132.9	0
354	74922	133	0
354	74922	133.1	0
354	74922	133.2	0
354	74922	133.3	0
354	74922	133.4	0
354	74922	133.5	0
354	74922	133.6	0
354	74922	133.7	0
354	74922	133.8	0
354	74922	133.9	0
354	74922	134	0
354	74922	134.1	0
354	74922	134.2	0
354	74922	134.3	0
354	74922	134.4	0
354	74922	134.5	0
354	74922	134.6	0
354	74922	134.7	0
354	74922	134.8	0
354	74922	134.9	0
354	74922	135	0
354	74922	135.1	0
354	74922	135.2	0
354	74922	135.3	0
354	74922	135.4	0
354	74922	135.5	0
354	74922	135.6	0
354	74922	135.7	0
354	74922	135.8	0
354	74922	135.9	0
354	74922	136	0
354	74922	136.1	0
354	74922	136.2	0
354	74922	136.3	0
354	74922	136.4	0
354	74922	136.5	0
354	74922	136.6	0
354	74922	136.7	0
354	74922	136.8	0
354	74922	136.9	0
354	74922	137	0
354	74922	137.1	0
354	74922	137.2	0
354	74922	137.3	0
354	74922	137.4	0
354	74922	137.5	0
354	74922	137.6	0
354	74922	137.7	0
354	74922	137.8	0
354	74922	137.9	0
354	74922	138	0
354	74922	138.1	0
354	74922	138.2	0
354	74922	138.3	0
354	74922	138.4	0
354	74922	138.5	0
354	74922	138.6	0
354	74922	138.7	0
354	74922	138.8	0
354	74922	138.9	0
354	74922	139	0
354	74922	139.1	0
354	74922	139.2	0
354	74922	139.3	0
354	74922	139.4	0
354	74922	139.5	0
354	74922	139.6	0
354	74922	139.7	0
354	74922	139.8	0
354	74922	139.9	0
354	74922	140	0
354	74922	140.1	0
354	74922	140.2	0
354	74922	140.3	0
354	74922	140.4	0
354	74922	140.5	0
354	74922	140.6	0
354	74922	140.7	0
354	74922	140.8	0
354	74922	140.9	0
354	74922	141	0
354	74922	141.1	0
354	74922	141.2	0
354	74922	141.3	0
354	74922	141.4	0
354	74922	141.5	0
354	74922	141.6	0
354	74922	141.7	0
354	74922	141.8	0
354	74922	141.9	0
354	74922	142	0
354	74922	142.1	0
354	74922	142.2	0
354	74922	142.3	0
354	74922	142.4	0
354	74922	142.5	0
354	74922	142.6	0
354	74922	142.7	0
354	74922	142.8	0
354	74922	142.9	0
354	74922	143	0
354	74922	143.1	0
354	74922	143.2	0
354	74922	143.3	0
354	74922	143.4	0
354	74922	143.5	0
354	74922	143.6	0
354	74922	143.7	0
354	74922	143.8	0
354	74922	143.9	0
354	74922	144	0
354	74922	144.1	0
354	74922	144.2	0
354	74922	144.3	0
354	74922	144.4	0
354	74922	144.5	0
354	74922	144.6	0
354	74922	144.7	0
354	74922	144.8	0
354	74922	144.9	0
354	74922	145	0
354	74922	145.1	0
354	74922	145.2	0
354	74922	145.3	0
354	74922	145.4	0
354	74922	145.5	0
354	74922	145.6	0
354	74922	145.7	0
354	74922	145.8	0
354	74922	145.9	0
354	74922	146	0
354	74922	146.1	0
354	74922	146.2	0
354	74922	146.3	0
354	74922	146.4	0
354	74922	146.5	0
354	74922	146.6	0
354	74922	146.7	0
354	74922	146.8	0
354	74922	146.9	0
354	74922	147	0
354	74922	147.1	0
354	74922	147.2	0
354	74922	147.3	0
354	74922	147.4	0
354	74922	147.5	0
354	74922	147.6	0
354	74922	147.7	0
354	74922	147.8	0
354	74922	147.9	0
354	74922	148	0
354	74922	148.1	0
354	74922	148.2	0
354	74922	148.3	0
354	74922	148.4	0
354	74922	148.5	0
354	74922	148.6	0
354	74922	148.7	0
354	74922	148.8	0
354	74922	148.9	0
354	74922	149	0
354	74922	149.1	0
354	74922	149.2	0
354	74922	149.3	0
354	74922	149.4	0
354	74922	149.5	0
354	74922	149.6	0
354	74922	149.7	0
354	74922	149.8	0
354	74922	149.9	0
354	74922	150	0
354	74922	150.1	0
354	74922	150.2	0
354	74922	150.3	0
354	74922	150.4	0
354	74922	150.5	0
354	74922	150.6	0
354	74922	150.7	0
354	74922	150.8	0
354	74922	150.9	0
354	74922	151	0
354	74922	151.1	0
354	74922	151.2	0
354	74922	151.3	0
354	74922	151.4	0
354	74922	151.5	0
354	74922	151.6	0
354	74922	151.7	0
354	74922	151.8	0
354	74922	151.9	0
354	74922	152	0
354	74922	152.1	0
354	74922	152.2	0
354	74922	152.3	0
354	74922	152.4	0
354	74922	152.5	0
354	74922	152.6	0
354	74922	152.7	0
354	74922	152.8	0
354	74922	152.9	0
354	74922	153	0
354	74922	153.1	0
354	74922	153.2	0
354	74922	153.3	0
354	74922	153.4	0
354	74922	153.5	0
354	74922	153.6	0
354	74922	153.7	0
354	74922	153.8	0
354	74922	153.9	0
354	74922	154	0
354	74922	154.1	0
354	74922	154.2	0
354	74922	154.3	0
354	74922	154.4	0
354	74922	154.5	0
354	74922	154.6	0
354	74922	154.7	0
354	74922	154.8	0
354	74922	154.9	0
354	74922	155	0
354	74922	155.1	0
354	74922	155.2	0
354	74922	155.3	0
354	74922	155.4	0
354	74922	155.5	0
354	74922	155.6	0
354	74922	155.7	0
354	74922	155.8	0
354	74922	155.9	0
354	74922	156	0
354	74922	156.1	0
354	74922	156.2	0
354	74922	156.3	0
354	74922	156.4	0
354	74922	156.5	0
354	74922	156.6	0
354	74922	156.7	0
354	74922	156.8	0
354	74922	156.9	0
354	74922	157	0
354	74922	157.1	0
354	74922	157.2	0
354	74922	157.3	0
354	74922	157.4	0
354	74922	157.5	0
354	74922	157.6	0
354	74922	157.7	0
354	74922	157.8	0
354	74922	157.9	0
354	74922	158	0
354	74922	158.1	0
354	74922	158.2	0
354	74922	158.3	0
354	74922	158.4	0
354	74922	158.5	0
354	74922	158.6	0
354	74922	158.7	0
354	74922	158.8	0
354	74922	158.9	0
354	74922	159	0
354	74922	159.1	0
354	74922	159.2	0
354	74922	159.3	0
354	74922	159.4	0
354	74922	159.5	0
354	74922	159.6	0
354	74922	159.7	0
354	74922	159.8	0
354	74922	159.9	0
354	74922	160	0
354	74922	160.1	0
354	74922	160.2	0
354	74922	160.3	0
354	74922	160.4	0
354	74922	160.5	0
354	74922	160.6	0
354	74922	160.7	0
354	74922	160.8	0
354	74922	160.9	0
354	74922	161	0
354	74922	161.1	0
354	74922	161.2	0
354	74922	161.3	0
354	74922	161.4	0
354	74922	161.5	0
354	74922	161.6	0
354	74922	161.7	0
354	74922	161.8	0
354	74922	161.9	0
354	74922	162	0
354	74922	162.1	0
354	74922	162.2	0
354	74922	162.3	0
354	74922	162.4	0
354	74922	162.5	0
354	74922	162.6	0
354	74922	162.7	0
354	74922	162.8	0
354	74922	162.9	0
354	74922	163	0
354	74922	163.1	0
354	74922	163.2	0
354	74922	163.3	0
354	74922	163.4	0
354	74922	163.5	0
354	74922	163.6	0
354	74922	163.7	0
354	74922	163.8	0
354	74922	163.9	0
354	74922	164	0
354	74922	164.1	0
354	74922	164.2	0
354	74922	164.3	0
354	74922	164.4	0
354	74922	164.5	0
354	74922	164.6	0
354	74922	164.7	0
354	74922	164.8	0
354	74922	164.9	0
354	74922	165	0
354	74922	165.1	0
354	74922	165.2	0
354	74922	165.3	0
354	74922	165.4	0
354	74922	165.5	0
354	74922	165.6	0
354	74922	165.7	0
354	74922	165.8	0
354	74922	165.9	0
354	74922	166	0
354	74922	166.1	0
354	74922	166.2	0
354	74922	166.3	0
354	74922	166.4	0
354	74922	166.5	0
354	74922	166.6	0
354	74922	166.7	0
354	74922	166.8	0
354	74922	166.9	0
354	74922	167	0
354	74922	167.1	0
354	74922	167.2	0
354	74922	167.3	0
354	74922	167.4	0
354	74922	167.5	0
354	74922	167.6	0
354	74922	167.7	0
354	74922	167.8	0
354	74922	167.9	0
354	74922	168	0
354	74922	168.1	0
354	74922	168.2	0
354	74922	168.3	0
354	74922	168.4	0
354	74922	168.5	0
354	74922	168.6	0
354	74922	168.7	0
354	74922	168.8	0
354	74922	168.9	0
354	74922	169	0
354	74922	169.1	0
354	74922	169.2	0
354	74922	169.3	0
354	74922	169.4	0
354	74922	169.5	0
354	74922	169.6	0
354	74922	169.7	0
354	74922	169.8	0
354	74922	169.9	0
354	74922	170	0
354	74922	170.1	0
354	74922	170.2	0
354	74922	170.3	0
354	74922	170.4	0
354	74922	170.5	0
354	74922	170.6	0
354	74922	170.7	0
354	74922	170.8	0
354	74922	170.9	0
354	74922	171	0
354	74922	171.1	0
354	74922	171.2	0
354	74922	171.3	0
354	74922	171.4	0
354	74922	171.5	0
354	74922	171.6	0
354	74922	171.7	0
354	74922	171.8	0
354	74922	171.9	0
354	74922	172	0
354	74922	172.1	0
354	74922	172.2	0
354	74922	172.3	0
354	74922	172.4	0
354	74922	172.5	0
354	74922	172.6	0
354	74922	172.7	0
354	74922	172.8	0
354	74922	172.9	0
354	74922	173	0
354	74922	173.1	0
354	74922	173.2	0
354	74922	173.3	0
354	74922	173.4	0
354	74922	173.5	0
354	74922	173.6	0
354	74922	173.7	0
354	74922	173.8	0
354	74922	173.9	0
354	74922	174	0
354	74922	174.1	0
354	74922	174.2	0
354	74922	174.3	0
354	74922	174.4	0
354	74922	174.5	0
354	74922	174.6	0
354	74922	174.7	0
354	74922	174.8	0
354	74922	174.9	0
354	74922	175	0
354	74922	175.1	0
354	74922	175.2	0
354	74922	175.3	0
354	74922	175.4	0
354	74922	175.5	0
354	74922	175.6	0
354	74922	175.7	0
354	74922	175.8	0
354	74922	175.9	0
354	74922	176	0
354	74922	176.1	0
354	74922	176.2	0
354	74922	176.3	0
354	74922	176.4	0
354	74922	176.5	0
354	74922	176.6	0
354	74922	176.7	0
354	74922	176.8	0
354	74922	176.9	0
354	74922	177	0
354	74922	177.1	0
354	74922	177.2	0
354	74922	177.3	0
354	74922	177.4	0
354	74922	177.5	0
354	74922	177.6	0
354	74922	177.7	0
354	74922	177.8	0
354	74922	177.9	0
354	74922	178	0
354	74922	178.1	0
354	74922	178.2	0
354	74922	178.3	0
354	74922	178.4	0
354	74922	178.5	0
354	74922	178.6	0
354	74922	178.7	0
354	74922	178.8	0
354	74922	178.9	0
354	74922	179	0
354	74922	179.1	0
354	74922	179.2	0
354	74922	179.3	0
354	74922	179.4	0
354	74922	179.5	0
354	74922	179.6	0
354	74922	179.7	0
354	74922	179.8	0
354	74922	179.9	0
354	74922	180	0

