version 2
run IPv4ModerateFastMobility-blackhole-0-20200316-09:14:21-32144
attr configname IPv4ModerateFastMobility-blackhole
attr datetime 20200316-09:14:21
attr experiment IPv4ModerateFastMobility-blackhole
attr inifile AODVgrayhole.ini
attr iterationvars ""
attr iterationvarsf ""
attr measurement ""
attr network AODVgrayhole
attr processid 32144
attr repetition 0
attr replication #0
attr resultdir results
attr runnumber 0
attr seedset 0
param **.aodv.activeRouteTimeout 2s
param **.host[*].mobility.speed "normal(8mps, 0.01mps)"
param **.aodv.activeRouteTimeout 3s
param **.host[0..18].mobility.typename "\"MassMobility\""
param **.sender.mobility.typename "\"StationaryMobility\""
param **.receiver.mobility.typename "\"StationaryMobility\""
param **.host[*].mobility.changeInterval "normal(5s, 0.1s)"
param **.host[*].mobility.angleDelta "normal(0deg, 30deg)"
param **.host[*].mobility.speed "normal(2mps, 0.01mps)"
param *.host[*].wlan[*].radio.transmitter.communicationRange 250m
param **.wlan[*].typename "\"AckingWirelessInterface\""
param **.wlan[*].bitrate 2Mbps
param **.wlan[*].mac.headerLength 23B
param **.wlan[*].radio.typename "\"UnitDiskRadio\""
param **.wlan[*].radio.transmitter.headerLength 96b
param **.wlan[*].radio.transmitter.communicationRange 250m
param **.wlan[*].radio.transmitter.interferenceRange 0m
param **.wlan[*].radio.transmitter.detectionRange 0m
param **.wlan[*].radio.receiver.ignoreInterference true
param *.numHosts 18
param **.host[*].mobility.typename "\"StationaryMobility\""
param **.mobility.constraintAreaMinZ 0m
param **.mobility.constraintAreaMaxZ 0m
param **.mobility.constraintAreaMinX 5m
param **.mobility.constraintAreaMinY 5m
param **.mobility.constraintAreaMaxX 785m
param **.mobility.constraintAreaMaxY 490m
param *.visualizer.sceneVisualizer.descriptionFigure "\"title\""
param *.visualizer.dataLinkVisualizer.displayLinks true
param *.visualizer.networkRouteVisualizer.displayRoutes true
param *.visualizer.networkRouteVisualizer.lineShift 0
param *.visualizer.networkRouteVisualizer.packetFilter "\"UDPData*\""
param *.visualizer.physicalLinkVisualizer.packetFilter "\"UDPData*\""
param *.sender.numApps 1
param *.sender.app[0].typename "\"UdpBasicApp\""
param *.sender.app[0].destAddresses "\"receiver\""
param *.sender.app[0].destPort 1000
param *.sender.app[0].sendInterval 1s
param *.sender.app[0].startTime 0s
param *.sender.app[0].messageLength 512Byte
param *.sender.app[0].packetName "\"UDPdata\""
param *.receiver.numApps 1
param *.receiver.app[0].typename "\"UdpSink\""
param *.receiver.app[0].localPort 1000
param **.hasStatus true

scalar AODVgrayhole.radioMedium.propagation "Arrival computation count" 69520
scalar AODVgrayhole.radioMedium "transmission count" 3476
scalar AODVgrayhole.radioMedium "signal send count" 69520
scalar AODVgrayhole.radioMedium "reception computation count" 69500
scalar AODVgrayhole.radioMedium "interference computation count" 203246
scalar AODVgrayhole.radioMedium "reception decision computation count" 19924
scalar AODVgrayhole.radioMedium "listening decision computation count" 113822
scalar AODVgrayhole.radioMedium "reception cache hit" 82.795368859865
attr unit %
scalar AODVgrayhole.radioMedium "interference cache hit" 66.666666666667
attr unit %
scalar AODVgrayhole.radioMedium "noise cache hit" 0
attr unit %
scalar AODVgrayhole.radioMedium "snir cache hit" 50
attr unit %
scalar AODVgrayhole.radioMedium "reception decision cache hit" 50
attr unit %
scalar AODVgrayhole.radioMedium "reception result cache hit" 0
attr unit %
scalar AODVgrayhole.host[0].lo[0].lo rcvdPkFromHl:count 0
attr interpolationmode none
attr source packetReceivedFromUpper
attr title "packets received from higher layer, count"
scalar AODVgrayhole.host[0].lo[0].lo rcvdPkFromHl:sum(packetBytes) 0
attr interpolationmode none
attr source packetReceivedFromUpper
attr title "packets received from higher layer, sum(packetBytes)"
scalar AODVgrayhole.host[0].lo[0].lo passedUpPk:count 0
attr interpolationmode none
attr source packetSentToUpper
attr title "packets passed to higher layer, count"
scalar AODVgrayhole.host[0].lo[0].lo passedUpPk:sum(packetBytes) 0
attr interpolationmode none
attr source packetSentToUpper
attr title "packets passed to higher layer, sum(packetBytes)"
scalar AODVgrayhole.host[0].wlan[0].mac.queue packetPopped:count 143
attr interpolationmode none
attr title "packet popped, count"
scalar AODVgrayhole.host[0].wlan[0].mac.queue packetPopped:sum(packetBytes) 23204
attr interpolationmode none
attr title "packet popped, sum(packetBytes)"
statistic AODVgrayhole.host[0].wlan[0].mac.queue queueingTime:histogram
field count 143
field mean 1.8467272727273e-09
field stddev 1.1988942132368e-08
field min 0
field max 1.05452e-07
field sum 2.64082e-07
field sqrsum 2.0898019582e-14
attr interpolationmode none
attr source queueingTime(packetPopped)
attr title "queueing times, histogram"
attr unit s
bin	-inf	0
bin	-0.5	0
bin	-0.48	0
bin	-0.46	0
bin	-0.44	0
bin	-0.42	0
bin	-0.4	0
bin	-0.38	0
bin	-0.36	0
bin	-0.34	0
bin	-0.32	0
bin	-0.3	0
bin	-0.28	0
bin	-0.26	0
bin	-0.24	0
bin	-0.22	0
bin	-0.2	0
bin	-0.18	0
bin	-0.16	0
bin	-0.14	0
bin	-0.12	0
bin	-0.1	0
bin	-0.08	0
bin	-0.06	0
bin	-0.04	0
bin	-0.02	0
bin	0	143
bin	0.02	0
bin	0.04	0
bin	0.06	0
bin	0.08	0
bin	0.1	0
bin	0.12	0
bin	0.14	0
bin	0.16	0
bin	0.18	0
bin	0.2	0
bin	0.22	0
bin	0.24	0
bin	0.26	0
bin	0.28	0
bin	0.3	0
bin	0.32	0
bin	0.34	0
bin	0.36	0
bin	0.38	0
bin	0.4	0
bin	0.42	0
bin	0.44	0
bin	0.46	0
bin	0.48	0
bin	0.5	0
scalar AODVgrayhole.host[0].wlan[0].mac.queue queueLength:max 1
attr interpolationmode sample-hold
attr source "count(packetPushed) - count(packetPopped) - count(packetRemoved) - count(packetDropped)"
attr title "queue length, max"
scalar AODVgrayhole.host[0].wlan[0].mac.queue queueLength:timeavg 1.6045638127117e-09
attr interpolationmode sample-hold
attr source "count(packetPushed) - count(packetPopped) - count(packetRemoved) - count(packetDropped)"
attr title "queue length, timeavg"
scalar AODVgrayhole.host[0].wlan[0].mac.queue packetPushed:count 143
attr interpolationmode none
attr title "packet pushed, count"
scalar AODVgrayhole.host[0].wlan[0].mac.queue packetPushed:sum(packetBytes) 23204
attr interpolationmode none
attr title "packet pushed, sum(packetBytes)"
scalar AODVgrayhole.host[0].wlan[0].mac.queue packetDropQueueOverflow:count 0
attr interpolationmode none
attr source packetDropReasonIsQueueOverflow(packetDropped)
attr title "packet drops: queue overflow, count"
scalar AODVgrayhole.host[0].wlan[0].mac.queue packetDropQueueOverflow:sum(packetBytes) 0
attr interpolationmode none
attr source packetDropReasonIsQueueOverflow(packetDropped)
attr title "packet drops: queue overflow, sum(packetBytes)"
scalar AODVgrayhole.host[0].wlan[0].mac.queue packetRemoved:count 0
attr interpolationmode none
attr title "packets removed, count"
scalar AODVgrayhole.host[0].wlan[0].mac.queue packetRemoved:sum(packetBytes) 0
attr interpolationmode none
attr title "packets removed, sum(packetBytes)"
scalar AODVgrayhole.host[0].wlan[0].mac rcvdPkFromLl:count 842
attr interpolationmode none
attr source packetReceivedFromLower
attr title "packets received from lower layer, count"
scalar AODVgrayhole.host[0].wlan[0].mac rcvdPkFromLl:sum(packetBytes) 169230
attr interpolationmode none
attr source packetReceivedFromLower
attr title "packets received from lower layer, sum(packetBytes)"
scalar AODVgrayhole.host[0].wlan[0].mac sentDownPk:count 143
attr interpolationmode none
attr source packetSentToLower
attr title "packets sent to lower layer, count"
scalar AODVgrayhole.host[0].wlan[0].mac sentDownPk:sum(packetBytes) 26493
attr interpolationmode none
attr source packetSentToLower
attr title "packets sent to lower layer, sum(packetBytes)"
scalar AODVgrayhole.host[0].wlan[0].mac rcvdPkFromHl:count 143
attr interpolationmode none
attr source packetReceivedFromUpper
attr title "packets received from higher layer, count"
scalar AODVgrayhole.host[0].wlan[0].mac rcvdPkFromHl:sum(packetBytes) 23204
attr interpolationmode none
attr source packetReceivedFromUpper
attr title "packets received from higher layer, sum(packetBytes)"
scalar AODVgrayhole.host[0].wlan[0].mac passedUpPk:count 519
attr interpolationmode none
attr source packetSentToUpper
attr title "packets passed to higher layer, count"
scalar AODVgrayhole.host[0].wlan[0].mac passedUpPk:sum(packetBytes) 41784
attr interpolationmode none
attr source packetSentToUpper
attr title "packets passed to higher layer, sum(packetBytes)"
scalar AODVgrayhole.host[0].wlan[0].mac packetDropIncorrectlyReceived:count 0
attr interpolationmode none
attr source packetDropReasonIsIncorrectlyReceived(packetDropped)
attr title "packet drop: incorrectly received, count"
scalar AODVgrayhole.host[0].wlan[0].mac packetDropIncorrectlyReceived:sum(packetBytes) 0
attr interpolationmode none
attr source packetDropReasonIsIncorrectlyReceived(packetDropped)
attr title "packet drop: incorrectly received, sum(packetBytes)"
scalar AODVgrayhole.host[0].wlan[0].mac packetDropInterfaceDown:count 0
attr interpolationmode none
attr source packetDropReasonIsInterfaceDown(packetDropped)
attr title "packet drop: interface down, count"
scalar AODVgrayhole.host[0].wlan[0].mac packetDropInterfaceDown:sum(packetBytes) 0
attr interpolationmode none
attr source packetDropReasonIsInterfaceDown(packetDropped)
attr title "packet drop: interface down, sum(packetBytes)"
scalar AODVgrayhole.host[0].wlan[0].mac packetDropNotAddressedToUs:count 323
attr interpolationmode none
attr source packetDropReasonIsNotAddressedToUs(packetDropped)
attr title "packet drop: not addressed to us, count"
scalar AODVgrayhole.host[0].wlan[0].mac packetDropNotAddressedToUs:sum(packetBytes) 115509
attr interpolationmode none
attr source packetDropReasonIsNotAddressedToUs(packetDropped)
attr title "packet drop: not addressed to us, sum(packetBytes)"
scalar AODVgrayhole.host[0].wlan[0].mac linkBroken:count 1
attr interpolationmode none
attr source linkBroken
attr title "link break, count"
scalar AODVgrayhole.host[0].wlan[0].radio radioMode:count 3
attr interpolationmode sample-hold
attr source radioModeChanged
attr title "Radio mode, count"
scalar AODVgrayhole.host[0].wlan[0].radio receptionState:count 1781
attr interpolationmode sample-hold
attr source receptionStateChanged
attr title "Radio reception state, count"
scalar AODVgrayhole.host[0].wlan[0].radio transmissionState:count 287
attr interpolationmode sample-hold
attr source transmissionStateChanged
attr title "Radio transmission state, count"
statistic AODVgrayhole.host[0].wlan[0].radio minSnir:histogram
field count 0
field mean -nan
field stddev nan
field min nan
field max nan
field sum 0
field sqrsum 0
attr source minimumSnir(packetSentToUpper)
attr title "Min SNIR, histogram"
bin	-inf	0
bin	0	0
bin	1	0
statistic AODVgrayhole.host[0].wlan[0].radio packetErrorRate:histogram
field count 842
field mean 0.15439429928741
field stddev 0.36154106193911
field min 0
field max 1
field sum 130
field sqrsum 130
attr source packetErrorRate(packetSentToUpper)
attr title "Packet error rate, histogram"
bin	-inf	0
bin	0	712
bin	1	130
bin	2	0
statistic AODVgrayhole.host[0].wlan[0].radio bitErrorRate:histogram
field count 842
field mean 0.15439429928741
field stddev 0.36154106193911
field min 0
field max 1
field sum 130
field sqrsum 130
attr source bitErrorRate(packetSentToUpper)
attr title "Bit error rate, histogram"
bin	-inf	0
bin	0	712
bin	1	130
bin	2	0
statistic AODVgrayhole.host[0].wlan[0].radio symbolErrorRate:histogram
field count 842
field mean 0.15439429928741
field stddev 0.36154106193911
field min 0
field max 1
field sum 130
field sqrsum 130
attr source symbolErrorRate(packetSentToUpper)
attr title "Symbol error rate, histogram"
bin	-inf	0
bin	0	712
bin	1	130
bin	2	0
scalar AODVgrayhole.host[0].ipv4.ip packetDropAddressResolutionFailed:count 0
attr interpolationmode none
attr source packetDropReasonIsAddressResolutionFailed(packetDropped)
attr title "packet drop: address resolution failed, count"
scalar AODVgrayhole.host[0].ipv4.ip packetDropAddressResolutionFailed:sum(packetBytes) 0
attr interpolationmode none
attr source packetDropReasonIsAddressResolutionFailed(packetDropped)
attr title "packet drop: address resolution failed, sum(packetBytes)"
scalar AODVgrayhole.host[0].ipv4.ip packetDropHopLimitReached:count 0
attr interpolationmode none
attr source packetDropReasonIsHopLimitReached(packetDropped)
attr title "packet drop: hop limit reached, count"
scalar AODVgrayhole.host[0].ipv4.ip packetDropHopLimitReached:sum(packetBytes) 0
attr interpolationmode none
attr source packetDropReasonIsHopLimitReached(packetDropped)
attr title "packet drop: hop limit reached, sum(packetBytes)"
scalar AODVgrayhole.host[0].ipv4.ip packetDropForwardingDisabled:count 0
attr interpolationmode none
attr source packetDropReasonIsForwardingDisabled(packetDropped)
attr title "packet drop: forwarding disabled, count"
scalar AODVgrayhole.host[0].ipv4.ip packetDropForwardingDisabled:sum(packetBytes) 0
attr interpolationmode none
attr source packetDropReasonIsForwardingDisabled(packetDropped)
attr title "packet drop: forwarding disabled, sum(packetBytes)"
scalar AODVgrayhole.host[0].ipv4.ip packetDropNoInterfaceFound:count 0
attr interpolationmode none
attr source packetDropReasonIsNoInterfaceFound(packetDropped)
attr title "packet drop: no interface found, count"
scalar AODVgrayhole.host[0].ipv4.ip packetDropNoInterfaceFound:sum(packetBytes) 0
attr interpolationmode none
attr source packetDropReasonIsNoInterfaceFound(packetDropped)
attr title "packet drop: no interface found, sum(packetBytes)"
scalar AODVgrayhole.host[0].ipv4.ip packetDropNoRouteFound:count 0
attr interpolationmode none
attr source packetDropReasonIsNoRouteFound(packetDropped)
attr title "packet drop: no route found, count"
scalar AODVgrayhole.host[0].ipv4.ip packetDropNoRouteFound:sum(packetBytes) 0
attr interpolationmode none
attr source packetDropReasonIsNoRouteFound(packetDropped)
attr title "packet drop: no route found, sum(packetBytes)"
scalar AODVgrayhole.host[0].ipv4.ip packetDropUndefined:count 0
attr interpolationmode none
attr source packetDropReasonIsUndefined(packetDropped)
attr title "packet drop: undefined, count"
scalar AODVgrayhole.host[0].ipv4.ip packetDropUndefined:sum(packetBytes) 0
attr interpolationmode none
attr source packetDropReasonIsUndefined(packetDropped)
attr title "packet drop: undefined, sum(packetBytes)"
scalar AODVgrayhole.host[0].ipv4.arp arpResolutionFailed:count 0
attr title "ARP failed resolutions, count"
scalar AODVgrayhole.host[0].ipv4.arp arpResolutionCompleted:count 33
attr title "ARP completed resolutions, count"
scalar AODVgrayhole.host[0].ipv4.arp arpResolutionInitiated:count 5
attr title "ARP initiated resolutions, count"
scalar AODVgrayhole.host[0].ipv4.arp arpReplySent:count 6
attr source arpReplySent
attr title "ARP replies sent, count"
scalar AODVgrayhole.host[0].ipv4.arp arpReplySent:sum(packetBytes) 168
attr source arpReplySent
attr title "ARP replies sent, sum(packetBytes)"
scalar AODVgrayhole.host[0].ipv4.arp arpRequestSent:count 5
attr source arpRequestSent
attr title "ARP request sent, count"
scalar AODVgrayhole.host[0].ipv4.arp arpRequestSent:sum(packetBytes) 140
attr source arpRequestSent
attr title "ARP request sent, sum(packetBytes)"
scalar AODVgrayhole.host[0].udp packetReceived:count 434
attr interpolationmode none
attr source packetReceived
attr title "packets received, count"
scalar AODVgrayhole.host[0].udp packetReceived:sum(packetBytes) 13808
attr interpolationmode none
attr source packetReceived
attr title "packets received, sum(packetBytes)"
scalar AODVgrayhole.host[0].udp packetSent:count 98
attr interpolationmode none
attr source packetSent
attr title "packets sent, count"
scalar AODVgrayhole.host[0].udp packetSent:sum(packetBytes) 3068
attr interpolationmode none
attr source packetSent
attr title "packets sent, sum(packetBytes)"
scalar AODVgrayhole.host[0].udp passedUpPk:count 434
attr interpolationmode none
attr source packetSentToUpper
attr title "packets passed up, count"
scalar AODVgrayhole.host[0].udp droppedPkWrongPort:count 0
attr interpolationmode none
attr source packetDropReasonIsNoPortFound(packetDropped)
attr title "packets dropped (wrong port), count"
scalar AODVgrayhole.host[0].udp droppedPkBadChecksum:count 0
attr interpolationmode none
attr source packetDropReasonIsIncorrectlyReceived(packetDropped)
attr title "packets dropped (checksum error), count"
scalar AODVgrayhole.host[1].lo[0].lo rcvdPkFromHl:count 0
attr interpolationmode none
attr source packetReceivedFromUpper
attr title "packets received from higher layer, count"
scalar AODVgrayhole.host[1].lo[0].lo rcvdPkFromHl:sum(packetBytes) 0
attr interpolationmode none
attr source packetReceivedFromUpper
attr title "packets received from higher layer, sum(packetBytes)"
scalar AODVgrayhole.host[1].lo[0].lo passedUpPk:count 0
attr interpolationmode none
attr source packetSentToUpper
attr title "packets passed to higher layer, count"
scalar AODVgrayhole.host[1].lo[0].lo passedUpPk:sum(packetBytes) 0
attr interpolationmode none
attr source packetSentToUpper
attr title "packets passed to higher layer, sum(packetBytes)"
scalar AODVgrayhole.host[1].wlan[0].mac.queue packetPopped:count 157
attr interpolationmode none
attr title "packet popped, count"
scalar AODVgrayhole.host[1].wlan[0].mac.queue packetPopped:sum(packetBytes) 24788
attr interpolationmode none
attr title "packet popped, sum(packetBytes)"
statistic AODVgrayhole.host[1].wlan[0].mac.queue queueingTime:histogram
field count 157
field mean 2.1241201464968e-06
field stddev 2.6556488821072e-05
field min 0
field max 0.000332756243
field sum 0.000333486863
field sqrsum 1.1072691353087e-07
attr interpolationmode none
attr source queueingTime(packetPopped)
attr title "queueing times, histogram"
attr unit s
bin	-inf	0
bin	-0.5	0
bin	-0.48	0
bin	-0.46	0
bin	-0.44	0
bin	-0.42	0
bin	-0.4	0
bin	-0.38	0
bin	-0.36	0
bin	-0.34	0
bin	-0.32	0
bin	-0.3	0
bin	-0.28	0
bin	-0.26	0
bin	-0.24	0
bin	-0.22	0
bin	-0.2	0
bin	-0.18	0
bin	-0.16	0
bin	-0.14	0
bin	-0.12	0
bin	-0.1	0
bin	-0.08	0
bin	-0.06	0
bin	-0.04	0
bin	-0.02	0
bin	0	157
bin	0.02	0
bin	0.04	0
bin	0.06	0
bin	0.08	0
bin	0.1	0
bin	0.12	0
bin	0.14	0
bin	0.16	0
bin	0.18	0
bin	0.2	0
bin	0.22	0
bin	0.24	0
bin	0.26	0
bin	0.28	0
bin	0.3	0
bin	0.32	0
bin	0.34	0
bin	0.36	0
bin	0.38	0
bin	0.4	0
bin	0.42	0
bin	0.44	0
bin	0.46	0
bin	0.48	0
bin	0.5	0
scalar AODVgrayhole.host[1].wlan[0].mac.queue queueLength:max 1
attr interpolationmode sample-hold
attr source "count(packetPushed) - count(packetPopped) - count(packetRemoved) - count(packetDropped)"
attr title "queue length, max"
scalar AODVgrayhole.host[1].wlan[0].mac.queue queueLength:timeavg 2.0262146925101e-06
attr interpolationmode sample-hold
attr source "count(packetPushed) - count(packetPopped) - count(packetRemoved) - count(packetDropped)"
attr title "queue length, timeavg"
scalar AODVgrayhole.host[1].wlan[0].mac.queue packetPushed:count 157
attr interpolationmode none
attr title "packet pushed, count"
scalar AODVgrayhole.host[1].wlan[0].mac.queue packetPushed:sum(packetBytes) 24788
attr interpolationmode none
attr title "packet pushed, sum(packetBytes)"
scalar AODVgrayhole.host[1].wlan[0].mac.queue packetDropQueueOverflow:count 0
attr interpolationmode none
attr source packetDropReasonIsQueueOverflow(packetDropped)
attr title "packet drops: queue overflow, count"
scalar AODVgrayhole.host[1].wlan[0].mac.queue packetDropQueueOverflow:sum(packetBytes) 0
attr interpolationmode none
attr source packetDropReasonIsQueueOverflow(packetDropped)
attr title "packet drops: queue overflow, sum(packetBytes)"
scalar AODVgrayhole.host[1].wlan[0].mac.queue packetRemoved:count 0
attr interpolationmode none
attr title "packets removed, count"
scalar AODVgrayhole.host[1].wlan[0].mac.queue packetRemoved:sum(packetBytes) 0
attr interpolationmode none
attr title "packets removed, sum(packetBytes)"
scalar AODVgrayhole.host[1].wlan[0].mac rcvdPkFromLl:count 839
attr interpolationmode none
attr source packetReceivedFromLower
attr title "packets received from lower layer, count"
scalar AODVgrayhole.host[1].wlan[0].mac rcvdPkFromLl:sum(packetBytes) 149269
attr interpolationmode none
attr source packetReceivedFromLower
attr title "packets received from lower layer, sum(packetBytes)"
scalar AODVgrayhole.host[1].wlan[0].mac sentDownPk:count 157
attr interpolationmode none
attr source packetSentToLower
attr title "packets sent to lower layer, count"
scalar AODVgrayhole.host[1].wlan[0].mac sentDownPk:sum(packetBytes) 28399
attr interpolationmode none
attr source packetSentToLower
attr title "packets sent to lower layer, sum(packetBytes)"
scalar AODVgrayhole.host[1].wlan[0].mac rcvdPkFromHl:count 157
attr interpolationmode none
attr source packetReceivedFromUpper
attr title "packets received from higher layer, count"
scalar AODVgrayhole.host[1].wlan[0].mac rcvdPkFromHl:sum(packetBytes) 24788
attr interpolationmode none
attr source packetReceivedFromUpper
attr title "packets received from higher layer, sum(packetBytes)"
scalar AODVgrayhole.host[1].wlan[0].mac passedUpPk:count 537
attr interpolationmode none
attr source packetSentToUpper
attr title "packets passed to higher layer, count"
scalar AODVgrayhole.host[1].wlan[0].mac passedUpPk:sum(packetBytes) 43652
attr interpolationmode none
attr source packetSentToUpper
attr title "packets passed to higher layer, sum(packetBytes)"
scalar AODVgrayhole.host[1].wlan[0].mac packetDropIncorrectlyReceived:count 0
attr interpolationmode none
attr source packetDropReasonIsIncorrectlyReceived(packetDropped)
attr title "packet drop: incorrectly received, count"
scalar AODVgrayhole.host[1].wlan[0].mac packetDropIncorrectlyReceived:sum(packetBytes) 0
attr interpolationmode none
attr source packetDropReasonIsIncorrectlyReceived(packetDropped)
attr title "packet drop: incorrectly received, sum(packetBytes)"
scalar AODVgrayhole.host[1].wlan[0].mac packetDropInterfaceDown:count 0
attr interpolationmode none
attr source packetDropReasonIsInterfaceDown(packetDropped)
attr title "packet drop: interface down, count"
scalar AODVgrayhole.host[1].wlan[0].mac packetDropInterfaceDown:sum(packetBytes) 0
attr interpolationmode none
attr source packetDropReasonIsInterfaceDown(packetDropped)
attr title "packet drop: interface down, sum(packetBytes)"
scalar AODVgrayhole.host[1].wlan[0].mac packetDropNotAddressedToUs:count 302
attr interpolationmode none
attr source packetDropReasonIsNotAddressedToUs(packetDropped)
attr title "packet drop: not addressed to us, count"
scalar AODVgrayhole.host[1].wlan[0].mac packetDropNotAddressedToUs:sum(packetBytes) 93266
attr interpolationmode none
attr source packetDropReasonIsNotAddressedToUs(packetDropped)
attr title "packet drop: not addressed to us, sum(packetBytes)"
scalar AODVgrayhole.host[1].wlan[0].mac linkBroken:count 8
attr interpolationmode none
attr source linkBroken
attr title "link break, count"
scalar AODVgrayhole.host[1].wlan[0].radio radioMode:count 3
attr interpolationmode sample-hold
attr source radioModeChanged
attr title "Radio mode, count"
scalar AODVgrayhole.host[1].wlan[0].radio receptionState:count 1785
attr interpolationmode sample-hold
attr source receptionStateChanged
attr title "Radio reception state, count"
scalar AODVgrayhole.host[1].wlan[0].radio transmissionState:count 315
attr interpolationmode sample-hold
attr source transmissionStateChanged
attr title "Radio transmission state, count"
statistic AODVgrayhole.host[1].wlan[0].radio minSnir:histogram
field count 0
field mean -nan
field stddev nan
field min nan
field max nan
field sum 0
field sqrsum 0
attr source minimumSnir(packetSentToUpper)
attr title "Min SNIR, histogram"
bin	-inf	0
bin	0	0
bin	1	0
statistic AODVgrayhole.host[1].wlan[0].radio packetErrorRate:histogram
field count 839
field mean 0.16567342073897
field stddev 0.37200898588809
field min 0
field max 1
field sum 139
field sqrsum 139
attr source packetErrorRate(packetSentToUpper)
attr title "Packet error rate, histogram"
bin	-inf	0
bin	0	700
bin	1	139
bin	2	0
statistic AODVgrayhole.host[1].wlan[0].radio bitErrorRate:histogram
field count 839
field mean 0.16567342073897
field stddev 0.37200898588809
field min 0
field max 1
field sum 139
field sqrsum 139
attr source bitErrorRate(packetSentToUpper)
attr title "Bit error rate, histogram"
bin	-inf	0
bin	0	700
bin	1	139
bin	2	0
statistic AODVgrayhole.host[1].wlan[0].radio symbolErrorRate:histogram
field count 839
field mean 0.16567342073897
field stddev 0.37200898588809
field min 0
field max 1
field sum 139
field sqrsum 139
attr source symbolErrorRate(packetSentToUpper)
attr title "Symbol error rate, histogram"
bin	-inf	0
bin	0	700
bin	1	139
bin	2	0
scalar AODVgrayhole.host[1].ipv4.ip packetDropAddressResolutionFailed:count 0
attr interpolationmode none
attr source packetDropReasonIsAddressResolutionFailed(packetDropped)
attr title "packet drop: address resolution failed, count"
scalar AODVgrayhole.host[1].ipv4.ip packetDropAddressResolutionFailed:sum(packetBytes) 0
attr interpolationmode none
attr source packetDropReasonIsAddressResolutionFailed(packetDropped)
attr title "packet drop: address resolution failed, sum(packetBytes)"
scalar AODVgrayhole.host[1].ipv4.ip packetDropHopLimitReached:count 0
attr interpolationmode none
attr source packetDropReasonIsHopLimitReached(packetDropped)
attr title "packet drop: hop limit reached, count"
scalar AODVgrayhole.host[1].ipv4.ip packetDropHopLimitReached:sum(packetBytes) 0
attr interpolationmode none
attr source packetDropReasonIsHopLimitReached(packetDropped)
attr title "packet drop: hop limit reached, sum(packetBytes)"
scalar AODVgrayhole.host[1].ipv4.ip packetDropForwardingDisabled:count 0
attr interpolationmode none
attr source packetDropReasonIsForwardingDisabled(packetDropped)
attr title "packet drop: forwarding disabled, count"
scalar AODVgrayhole.host[1].ipv4.ip packetDropForwardingDisabled:sum(packetBytes) 0
attr interpolationmode none
attr source packetDropReasonIsForwardingDisabled(packetDropped)
attr title "packet drop: forwarding disabled, sum(packetBytes)"
scalar AODVgrayhole.host[1].ipv4.ip packetDropNoInterfaceFound:count 0
attr interpolationmode none
attr source packetDropReasonIsNoInterfaceFound(packetDropped)
attr title "packet drop: no interface found, count"
scalar AODVgrayhole.host[1].ipv4.ip packetDropNoInterfaceFound:sum(packetBytes) 0
attr interpolationmode none
attr source packetDropReasonIsNoInterfaceFound(packetDropped)
attr title "packet drop: no interface found, sum(packetBytes)"
scalar AODVgrayhole.host[1].ipv4.ip packetDropNoRouteFound:count 0
attr interpolationmode none
attr source packetDropReasonIsNoRouteFound(packetDropped)
attr title "packet drop: no route found, count"
scalar AODVgrayhole.host[1].ipv4.ip packetDropNoRouteFound:sum(packetBytes) 0
attr interpolationmode none
attr source packetDropReasonIsNoRouteFound(packetDropped)
attr title "packet drop: no route found, sum(packetBytes)"
scalar AODVgrayhole.host[1].ipv4.ip packetDropUndefined:count 0
attr interpolationmode none
attr source packetDropReasonIsUndefined(packetDropped)
attr title "packet drop: undefined, count"
scalar AODVgrayhole.host[1].ipv4.ip packetDropUndefined:sum(packetBytes) 0
attr interpolationmode none
attr source packetDropReasonIsUndefined(packetDropped)
attr title "packet drop: undefined, sum(packetBytes)"
scalar AODVgrayhole.host[1].ipv4.arp arpResolutionFailed:count 0
attr title "ARP failed resolutions, count"
scalar AODVgrayhole.host[1].ipv4.arp arpResolutionCompleted:count 43
attr title "ARP completed resolutions, count"
scalar AODVgrayhole.host[1].ipv4.arp arpResolutionInitiated:count 9
attr title "ARP initiated resolutions, count"
scalar AODVgrayhole.host[1].ipv4.arp arpReplySent:count 3
attr source arpReplySent
attr title "ARP replies sent, count"
scalar AODVgrayhole.host[1].ipv4.arp arpReplySent:sum(packetBytes) 84
attr source arpReplySent
attr title "ARP replies sent, sum(packetBytes)"
scalar AODVgrayhole.host[1].ipv4.arp arpRequestSent:count 11
attr source arpRequestSent
attr title "ARP request sent, count"
scalar AODVgrayhole.host[1].ipv4.arp arpRequestSent:sum(packetBytes) 308
attr source arpRequestSent
attr title "ARP request sent, sum(packetBytes)"
scalar AODVgrayhole.host[1].udp packetReceived:count 449
attr interpolationmode none
attr source packetReceived
attr title "packets received, count"
scalar AODVgrayhole.host[1].udp packetReceived:sum(packetBytes) 14288
attr interpolationmode none
attr source packetReceived
attr title "packets received, sum(packetBytes)"
scalar AODVgrayhole.host[1].udp packetSent:count 108
attr interpolationmode none
attr source packetSent
attr title "packets sent, count"
scalar AODVgrayhole.host[1].udp packetSent:sum(packetBytes) 3336
attr interpolationmode none
attr source packetSent
attr title "packets sent, sum(packetBytes)"
scalar AODVgrayhole.host[1].udp passedUpPk:count 449
attr interpolationmode none
attr source packetSentToUpper
attr title "packets passed up, count"
scalar AODVgrayhole.host[1].udp droppedPkWrongPort:count 0
attr interpolationmode none
attr source packetDropReasonIsNoPortFound(packetDropped)
attr title "packets dropped (wrong port), count"
scalar AODVgrayhole.host[1].udp droppedPkBadChecksum:count 0
attr interpolationmode none
attr source packetDropReasonIsIncorrectlyReceived(packetDropped)
attr title "packets dropped (checksum error), count"
scalar AODVgrayhole.host[2].lo[0].lo rcvdPkFromHl:count 0
attr interpolationmode none
attr source packetReceivedFromUpper
attr title "packets received from higher layer, count"
scalar AODVgrayhole.host[2].lo[0].lo rcvdPkFromHl:sum(packetBytes) 0
attr interpolationmode none
attr source packetReceivedFromUpper
attr title "packets received from higher layer, sum(packetBytes)"
scalar AODVgrayhole.host[2].lo[0].lo passedUpPk:count 0
attr interpolationmode none
attr source packetSentToUpper
attr title "packets passed to higher layer, count"
scalar AODVgrayhole.host[2].lo[0].lo passedUpPk:sum(packetBytes) 0
attr interpolationmode none
attr source packetSentToUpper
attr title "packets passed to higher layer, sum(packetBytes)"
scalar AODVgrayhole.host[2].wlan[0].mac.queue packetPopped:count 212
attr interpolationmode none
attr title "packet popped, count"
scalar AODVgrayhole.host[2].wlan[0].mac.queue packetPopped:sum(packetBytes) 45608
attr interpolationmode none
attr title "packet popped, sum(packetBytes)"
statistic AODVgrayhole.host[2].wlan[0].mac.queue queueingTime:histogram
field count 212
field mean 7.641014120283e-05
field stddev 0.00059044586866236
field min 0
field max 0.006551305853
field sum 0.016198949935
field sqrsum 7.4797918377985e-05
attr interpolationmode none
attr source queueingTime(packetPopped)
attr title "queueing times, histogram"
attr unit s
bin	-inf	0
bin	-0.5	0
bin	-0.48	0
bin	-0.46	0
bin	-0.44	0
bin	-0.42	0
bin	-0.4	0
bin	-0.38	0
bin	-0.36	0
bin	-0.34	0
bin	-0.32	0
bin	-0.3	0
bin	-0.28	0
bin	-0.26	0
bin	-0.24	0
bin	-0.22	0
bin	-0.2	0
bin	-0.18	0
bin	-0.16	0
bin	-0.14	0
bin	-0.12	0
bin	-0.1	0
bin	-0.08	0
bin	-0.06	0
bin	-0.04	0
bin	-0.02	0
bin	0	212
bin	0.02	0
bin	0.04	0
bin	0.06	0
bin	0.08	0
bin	0.1	0
bin	0.12	0
bin	0.14	0
bin	0.16	0
bin	0.18	0
bin	0.2	0
bin	0.22	0
bin	0.24	0
bin	0.26	0
bin	0.28	0
bin	0.3	0
bin	0.32	0
bin	0.34	0
bin	0.36	0
bin	0.38	0
bin	0.4	0
bin	0.42	0
bin	0.44	0
bin	0.46	0
bin	0.48	0
bin	0.5	0
scalar AODVgrayhole.host[2].wlan[0].mac.queue queueLength:max 3
attr interpolationmode sample-hold
attr source "count(packetPushed) - count(packetPopped) - count(packetRemoved) - count(packetDropped)"
attr title "queue length, max"
scalar AODVgrayhole.host[2].wlan[0].mac.queue queueLength:timeavg 9.8422206952294e-05
attr interpolationmode sample-hold
attr source "count(packetPushed) - count(packetPopped) - count(packetRemoved) - count(packetDropped)"
attr title "queue length, timeavg"
scalar AODVgrayhole.host[2].wlan[0].mac.queue packetPushed:count 212
attr interpolationmode none
attr title "packet pushed, count"
scalar AODVgrayhole.host[2].wlan[0].mac.queue packetPushed:sum(packetBytes) 45608
attr interpolationmode none
attr title "packet pushed, sum(packetBytes)"
scalar AODVgrayhole.host[2].wlan[0].mac.queue packetDropQueueOverflow:count 0
attr interpolationmode none
attr source packetDropReasonIsQueueOverflow(packetDropped)
attr title "packet drops: queue overflow, count"
scalar AODVgrayhole.host[2].wlan[0].mac.queue packetDropQueueOverflow:sum(packetBytes) 0
attr interpolationmode none
attr source packetDropReasonIsQueueOverflow(packetDropped)
attr title "packet drops: queue overflow, sum(packetBytes)"
scalar AODVgrayhole.host[2].wlan[0].mac.queue packetRemoved:count 0
attr interpolationmode none
attr title "packets removed, count"
scalar AODVgrayhole.host[2].wlan[0].mac.queue packetRemoved:sum(packetBytes) 0
attr interpolationmode none
attr title "packets removed, sum(packetBytes)"
scalar AODVgrayhole.host[2].wlan[0].mac rcvdPkFromLl:count 1003
attr interpolationmode none
attr source packetReceivedFromLower
attr title "packets received from lower layer, count"
scalar AODVgrayhole.host[2].wlan[0].mac rcvdPkFromLl:sum(packetBytes) 198953
attr interpolationmode none
attr source packetReceivedFromLower
attr title "packets received from lower layer, sum(packetBytes)"
scalar AODVgrayhole.host[2].wlan[0].mac sentDownPk:count 212
attr interpolationmode none
attr source packetSentToLower
attr title "packets sent to lower layer, count"
scalar AODVgrayhole.host[2].wlan[0].mac sentDownPk:sum(packetBytes) 50484
attr interpolationmode none
attr source packetSentToLower
attr title "packets sent to lower layer, sum(packetBytes)"
scalar AODVgrayhole.host[2].wlan[0].mac rcvdPkFromHl:count 212
attr interpolationmode none
attr source packetReceivedFromUpper
attr title "packets received from higher layer, count"
scalar AODVgrayhole.host[2].wlan[0].mac rcvdPkFromHl:sum(packetBytes) 45608
attr interpolationmode none
attr source packetReceivedFromUpper
attr title "packets received from higher layer, sum(packetBytes)"
scalar AODVgrayhole.host[2].wlan[0].mac passedUpPk:count 632
attr interpolationmode none
attr source packetSentToUpper
attr title "packets passed to higher layer, count"
scalar AODVgrayhole.host[2].wlan[0].mac passedUpPk:sum(packetBytes) 66340
attr interpolationmode none
attr source packetSentToUpper
attr title "packets passed to higher layer, sum(packetBytes)"
scalar AODVgrayhole.host[2].wlan[0].mac packetDropIncorrectlyReceived:count 0
attr interpolationmode none
attr source packetDropReasonIsIncorrectlyReceived(packetDropped)
attr title "packet drop: incorrectly received, count"
scalar AODVgrayhole.host[2].wlan[0].mac packetDropIncorrectlyReceived:sum(packetBytes) 0
attr interpolationmode none
attr source packetDropReasonIsIncorrectlyReceived(packetDropped)
attr title "packet drop: incorrectly received, sum(packetBytes)"
scalar AODVgrayhole.host[2].wlan[0].mac packetDropInterfaceDown:count 0
attr interpolationmode none
attr source packetDropReasonIsInterfaceDown(packetDropped)
attr title "packet drop: interface down, count"
scalar AODVgrayhole.host[2].wlan[0].mac packetDropInterfaceDown:sum(packetBytes) 0
attr interpolationmode none
attr source packetDropReasonIsInterfaceDown(packetDropped)
attr title "packet drop: interface down, sum(packetBytes)"
scalar AODVgrayhole.host[2].wlan[0].mac packetDropNotAddressedToUs:count 371
attr interpolationmode none
attr source packetDropReasonIsNotAddressedToUs(packetDropped)
attr title "packet drop: not addressed to us, count"
scalar AODVgrayhole.host[2].wlan[0].mac packetDropNotAddressedToUs:sum(packetBytes) 118077
attr interpolationmode none
attr source packetDropReasonIsNotAddressedToUs(packetDropped)
attr title "packet drop: not addressed to us, sum(packetBytes)"
scalar AODVgrayhole.host[2].wlan[0].mac linkBroken:count 4
attr interpolationmode none
attr source linkBroken
attr title "link break, count"
scalar AODVgrayhole.host[2].wlan[0].radio radioMode:count 3
attr interpolationmode sample-hold
attr source radioModeChanged
attr title "Radio mode, count"
scalar AODVgrayhole.host[2].wlan[0].radio receptionState:count 2118
attr interpolationmode sample-hold
attr source receptionStateChanged
attr title "Radio reception state, count"
scalar AODVgrayhole.host[2].wlan[0].radio transmissionState:count 425
attr interpolationmode sample-hold
attr source transmissionStateChanged
attr title "Radio transmission state, count"
statistic AODVgrayhole.host[2].wlan[0].radio minSnir:histogram
field count 0
field mean -nan
field stddev nan
field min nan
field max nan
field sum 0
field sqrsum 0
attr source minimumSnir(packetSentToUpper)
attr title "Min SNIR, histogram"
bin	-inf	0
bin	0	0
bin	1	0
statistic AODVgrayhole.host[2].wlan[0].radio packetErrorRate:histogram
field count 1003
field mean 0.17048853439681
field stddev 0.37624903182632
field min 0
field max 1
field sum 171
field sqrsum 171
attr source packetErrorRate(packetSentToUpper)
attr title "Packet error rate, histogram"
bin	-inf	0
bin	0	832
bin	1	171
bin	2	0
statistic AODVgrayhole.host[2].wlan[0].radio bitErrorRate:histogram
field count 1003
field mean 0.17048853439681
field stddev 0.37624903182632
field min 0
field max 1
field sum 171
field sqrsum 171
attr source bitErrorRate(packetSentToUpper)
attr title "Bit error rate, histogram"
bin	-inf	0
bin	0	832
bin	1	171
bin	2	0
statistic AODVgrayhole.host[2].wlan[0].radio symbolErrorRate:histogram
field count 1003
field mean 0.17048853439681
field stddev 0.37624903182632
field min 0
field max 1
field sum 171
field sqrsum 171
attr source symbolErrorRate(packetSentToUpper)
attr title "Symbol error rate, histogram"
bin	-inf	0
bin	0	832
bin	1	171
bin	2	0
scalar AODVgrayhole.host[2].ipv4.ip packetDropAddressResolutionFailed:count 0
attr interpolationmode none
attr source packetDropReasonIsAddressResolutionFailed(packetDropped)
attr title "packet drop: address resolution failed, count"
scalar AODVgrayhole.host[2].ipv4.ip packetDropAddressResolutionFailed:sum(packetBytes) 0
attr interpolationmode none
attr source packetDropReasonIsAddressResolutionFailed(packetDropped)
attr title "packet drop: address resolution failed, sum(packetBytes)"
scalar AODVgrayhole.host[2].ipv4.ip packetDropHopLimitReached:count 0
attr interpolationmode none
attr source packetDropReasonIsHopLimitReached(packetDropped)
attr title "packet drop: hop limit reached, count"
scalar AODVgrayhole.host[2].ipv4.ip packetDropHopLimitReached:sum(packetBytes) 0
attr interpolationmode none
attr source packetDropReasonIsHopLimitReached(packetDropped)
attr title "packet drop: hop limit reached, sum(packetBytes)"
scalar AODVgrayhole.host[2].ipv4.ip packetDropForwardingDisabled:count 0
attr interpolationmode none
attr source packetDropReasonIsForwardingDisabled(packetDropped)
attr title "packet drop: forwarding disabled, count"
scalar AODVgrayhole.host[2].ipv4.ip packetDropForwardingDisabled:sum(packetBytes) 0
attr interpolationmode none
attr source packetDropReasonIsForwardingDisabled(packetDropped)
attr title "packet drop: forwarding disabled, sum(packetBytes)"
scalar AODVgrayhole.host[2].ipv4.ip packetDropNoInterfaceFound:count 0
attr interpolationmode none
attr source packetDropReasonIsNoInterfaceFound(packetDropped)
attr title "packet drop: no interface found, count"
scalar AODVgrayhole.host[2].ipv4.ip packetDropNoInterfaceFound:sum(packetBytes) 0
attr interpolationmode none
attr source packetDropReasonIsNoInterfaceFound(packetDropped)
attr title "packet drop: no interface found, sum(packetBytes)"
scalar AODVgrayhole.host[2].ipv4.ip packetDropNoRouteFound:count 0
attr interpolationmode none
attr source packetDropReasonIsNoRouteFound(packetDropped)
attr title "packet drop: no route found, count"
scalar AODVgrayhole.host[2].ipv4.ip packetDropNoRouteFound:sum(packetBytes) 0
attr interpolationmode none
attr source packetDropReasonIsNoRouteFound(packetDropped)
attr title "packet drop: no route found, sum(packetBytes)"
scalar AODVgrayhole.host[2].ipv4.ip packetDropUndefined:count 0
attr interpolationmode none
attr source packetDropReasonIsUndefined(packetDropped)
attr title "packet drop: undefined, count"
scalar AODVgrayhole.host[2].ipv4.ip packetDropUndefined:sum(packetBytes) 0
attr interpolationmode none
attr source packetDropReasonIsUndefined(packetDropped)
attr title "packet drop: undefined, sum(packetBytes)"
scalar AODVgrayhole.host[2].ipv4.arp arpResolutionFailed:count 0
attr title "ARP failed resolutions, count"
scalar AODVgrayhole.host[2].ipv4.arp arpResolutionCompleted:count 40
attr title "ARP completed resolutions, count"
scalar AODVgrayhole.host[2].ipv4.arp arpResolutionInitiated:count 6
attr title "ARP initiated resolutions, count"
scalar AODVgrayhole.host[2].ipv4.arp arpReplySent:count 10
attr source arpReplySent
attr title "ARP replies sent, count"
scalar AODVgrayhole.host[2].ipv4.arp arpReplySent:sum(packetBytes) 280
attr source arpReplySent
attr title "ARP replies sent, sum(packetBytes)"
scalar AODVgrayhole.host[2].ipv4.arp arpRequestSent:count 7
attr source arpRequestSent
attr title "ARP request sent, count"
scalar AODVgrayhole.host[2].ipv4.arp arpRequestSent:sum(packetBytes) 196
attr source arpRequestSent
attr title "ARP request sent, sum(packetBytes)"
scalar AODVgrayhole.host[2].udp packetReceived:count 497
attr interpolationmode none
attr source packetReceived
attr title "packets received, count"
scalar AODVgrayhole.host[2].udp packetReceived:sum(packetBytes) 15736
attr interpolationmode none
attr source packetReceived
attr title "packets received, sum(packetBytes)"
scalar AODVgrayhole.host[2].udp packetSent:count 122
attr interpolationmode none
attr source packetSent
attr title "packets sent, count"
scalar AODVgrayhole.host[2].udp packetSent:sum(packetBytes) 3764
attr interpolationmode none
attr source packetSent
attr title "packets sent, sum(packetBytes)"
scalar AODVgrayhole.host[2].udp passedUpPk:count 497
attr interpolationmode none
attr source packetSentToUpper
attr title "packets passed up, count"
scalar AODVgrayhole.host[2].udp droppedPkWrongPort:count 0
attr interpolationmode none
attr source packetDropReasonIsNoPortFound(packetDropped)
attr title "packets dropped (wrong port), count"
scalar AODVgrayhole.host[2].udp droppedPkBadChecksum:count 0
attr interpolationmode none
attr source packetDropReasonIsIncorrectlyReceived(packetDropped)
attr title "packets dropped (checksum error), count"
scalar AODVgrayhole.host[3].lo[0].lo rcvdPkFromHl:count 0
attr interpolationmode none
attr source packetReceivedFromUpper
attr title "packets received from higher layer, count"
scalar AODVgrayhole.host[3].lo[0].lo rcvdPkFromHl:sum(packetBytes) 0
attr interpolationmode none
attr source packetReceivedFromUpper
attr title "packets received from higher layer, sum(packetBytes)"
scalar AODVgrayhole.host[3].lo[0].lo passedUpPk:count 0
attr interpolationmode none
attr source packetSentToUpper
attr title "packets passed to higher layer, count"
scalar AODVgrayhole.host[3].lo[0].lo passedUpPk:sum(packetBytes) 0
attr interpolationmode none
attr source packetSentToUpper
attr title "packets passed to higher layer, sum(packetBytes)"
scalar AODVgrayhole.host[3].wlan[0].mac.queue packetPopped:count 187
attr interpolationmode none
attr title "packet popped, count"
scalar AODVgrayhole.host[3].wlan[0].mac.queue packetPopped:sum(packetBytes) 39544
attr interpolationmode none
attr title "packet popped, sum(packetBytes)"
statistic AODVgrayhole.host[3].wlan[0].mac.queue queueingTime:histogram
field count 187
field mean 0.0005076887237754
field stddev 0.0069176952991945
field min 0
field max 0.094599295683
field sum 0.094937791346
field sqrsum 0.008949137381091
attr interpolationmode none
attr source queueingTime(packetPopped)
attr title "queueing times, histogram"
attr unit s
bin	-inf	0
bin	0	186
bin	0.002	0
bin	0.004	0
bin	0.006	0
bin	0.008	0
bin	0.01	0
bin	0.012	0
bin	0.014	0
bin	0.016	0
bin	0.018	0
bin	0.02	0
bin	0.022	0
bin	0.024	0
bin	0.026	0
bin	0.028	0
bin	0.03	0
bin	0.032	0
bin	0.034	0
bin	0.036	0
bin	0.038	0
bin	0.04	0
bin	0.042	0
bin	0.044	0
bin	0.046	0
bin	0.048	0
bin	0.05	0
bin	0.052	0
bin	0.054	0
bin	0.056	0
bin	0.058	0
bin	0.06	0
bin	0.062	0
bin	0.064	0
bin	0.066	0
bin	0.068	0
bin	0.07	0
bin	0.072	0
bin	0.074	0
bin	0.076	0
bin	0.078	0
bin	0.08	0
bin	0.082	0
bin	0.084	0
bin	0.086	0
bin	0.088	0
bin	0.09	0
bin	0.092	0
bin	0.094	1
bin	0.096	0
scalar AODVgrayhole.host[3].wlan[0].mac.queue queueLength:max 1
attr interpolationmode sample-hold
attr source "count(packetPushed) - count(packetPopped) - count(packetRemoved) - count(packetDropped)"
attr title "queue length, max"
scalar AODVgrayhole.host[3].wlan[0].mac.queue queueLength:timeavg 0.00057681802753926
attr interpolationmode sample-hold
attr source "count(packetPushed) - count(packetPopped) - count(packetRemoved) - count(packetDropped)"
attr title "queue length, timeavg"
scalar AODVgrayhole.host[3].wlan[0].mac.queue packetPushed:count 187
attr interpolationmode none
attr title "packet pushed, count"
scalar AODVgrayhole.host[3].wlan[0].mac.queue packetPushed:sum(packetBytes) 39544
attr interpolationmode none
attr title "packet pushed, sum(packetBytes)"
scalar AODVgrayhole.host[3].wlan[0].mac.queue packetDropQueueOverflow:count 0
attr interpolationmode none
attr source packetDropReasonIsQueueOverflow(packetDropped)
attr title "packet drops: queue overflow, count"
scalar AODVgrayhole.host[3].wlan[0].mac.queue packetDropQueueOverflow:sum(packetBytes) 0
attr interpolationmode none
attr source packetDropReasonIsQueueOverflow(packetDropped)
attr title "packet drops: queue overflow, sum(packetBytes)"
scalar AODVgrayhole.host[3].wlan[0].mac.queue packetRemoved:count 0
attr interpolationmode none
attr title "packets removed, count"
scalar AODVgrayhole.host[3].wlan[0].mac.queue packetRemoved:sum(packetBytes) 0
attr interpolationmode none
attr title "packets removed, sum(packetBytes)"
scalar AODVgrayhole.host[3].wlan[0].mac rcvdPkFromLl:count 977
attr interpolationmode none
attr source packetReceivedFromLower
attr title "packets received from lower layer, count"
scalar AODVgrayhole.host[3].wlan[0].mac rcvdPkFromLl:sum(packetBytes) 237915
attr interpolationmode none
attr source packetReceivedFromLower
attr title "packets received from lower layer, sum(packetBytes)"
scalar AODVgrayhole.host[3].wlan[0].mac sentDownPk:count 187
attr interpolationmode none
attr source packetSentToLower
attr title "packets sent to lower layer, count"
scalar AODVgrayhole.host[3].wlan[0].mac sentDownPk:sum(packetBytes) 43845
attr interpolationmode none
attr source packetSentToLower
attr title "packets sent to lower layer, sum(packetBytes)"
scalar AODVgrayhole.host[3].wlan[0].mac rcvdPkFromHl:count 187
attr interpolationmode none
attr source packetReceivedFromUpper
attr title "packets received from higher layer, count"
scalar AODVgrayhole.host[3].wlan[0].mac rcvdPkFromHl:sum(packetBytes) 39544
attr interpolationmode none
attr source packetReceivedFromUpper
attr title "packets received from higher layer, sum(packetBytes)"
scalar AODVgrayhole.host[3].wlan[0].mac passedUpPk:count 605
attr interpolationmode none
attr source packetSentToUpper
attr title "packets passed to higher layer, count"
scalar AODVgrayhole.host[3].wlan[0].mac passedUpPk:sum(packetBytes) 60440
attr interpolationmode none
attr source packetSentToUpper
attr title "packets passed to higher layer, sum(packetBytes)"
scalar AODVgrayhole.host[3].wlan[0].mac packetDropIncorrectlyReceived:count 0
attr interpolationmode none
attr source packetDropReasonIsIncorrectlyReceived(packetDropped)
attr title "packet drop: incorrectly received, count"
scalar AODVgrayhole.host[3].wlan[0].mac packetDropIncorrectlyReceived:sum(packetBytes) 0
attr interpolationmode none
attr source packetDropReasonIsIncorrectlyReceived(packetDropped)
attr title "packet drop: incorrectly received, sum(packetBytes)"
scalar AODVgrayhole.host[3].wlan[0].mac packetDropInterfaceDown:count 0
attr interpolationmode none
attr source packetDropReasonIsInterfaceDown(packetDropped)
attr title "packet drop: interface down, count"
scalar AODVgrayhole.host[3].wlan[0].mac packetDropInterfaceDown:sum(packetBytes) 0
attr interpolationmode none
attr source packetDropReasonIsInterfaceDown(packetDropped)
attr title "packet drop: interface down, sum(packetBytes)"
scalar AODVgrayhole.host[3].wlan[0].mac packetDropNotAddressedToUs:count 372
attr interpolationmode none
attr source packetDropReasonIsNotAddressedToUs(packetDropped)
attr title "packet drop: not addressed to us, count"
scalar AODVgrayhole.host[3].wlan[0].mac packetDropNotAddressedToUs:sum(packetBytes) 163560
attr interpolationmode none
attr source packetDropReasonIsNotAddressedToUs(packetDropped)
attr title "packet drop: not addressed to us, sum(packetBytes)"
scalar AODVgrayhole.host[3].wlan[0].mac linkBroken:count 1
attr interpolationmode none
attr source linkBroken
attr title "link break, count"
scalar AODVgrayhole.host[3].wlan[0].radio radioMode:count 3
attr interpolationmode sample-hold
attr source radioModeChanged
attr title "Radio mode, count"
scalar AODVgrayhole.host[3].wlan[0].radio receptionState:count 2037
attr interpolationmode sample-hold
attr source receptionStateChanged
attr title "Radio reception state, count"
scalar AODVgrayhole.host[3].wlan[0].radio transmissionState:count 375
attr interpolationmode sample-hold
attr source transmissionStateChanged
attr title "Radio transmission state, count"
statistic AODVgrayhole.host[3].wlan[0].radio minSnir:histogram
field count 0
field mean -nan
field stddev nan
field min nan
field max nan
field sum 0
field sqrsum 0
attr source minimumSnir(packetSentToUpper)
attr title "Min SNIR, histogram"
bin	-inf	0
bin	0	0
bin	1	0
statistic AODVgrayhole.host[3].wlan[0].radio packetErrorRate:histogram
field count 977
field mean 0.098259979529171
field stddev 0.29781829983808
field min 0
field max 1
field sum 96
field sqrsum 96
attr source packetErrorRate(packetSentToUpper)
attr title "Packet error rate, histogram"
bin	-inf	0
bin	0	881
bin	1	96
bin	2	0
statistic AODVgrayhole.host[3].wlan[0].radio bitErrorRate:histogram
field count 977
field mean 0.098259979529171
field stddev 0.29781829983808
field min 0
field max 1
field sum 96
field sqrsum 96
attr source bitErrorRate(packetSentToUpper)
attr title "Bit error rate, histogram"
bin	-inf	0
bin	0	881
bin	1	96
bin	2	0
statistic AODVgrayhole.host[3].wlan[0].radio symbolErrorRate:histogram
field count 977
field mean 0.098259979529171
field stddev 0.29781829983808
field min 0
field max 1
field sum 96
field sqrsum 96
attr source symbolErrorRate(packetSentToUpper)
attr title "Symbol error rate, histogram"
bin	-inf	0
bin	0	881
bin	1	96
bin	2	0
scalar AODVgrayhole.host[3].ipv4.ip packetDropAddressResolutionFailed:count 1
attr interpolationmode none
attr source packetDropReasonIsAddressResolutionFailed(packetDropped)
attr title "packet drop: address resolution failed, count"
scalar AODVgrayhole.host[3].ipv4.ip packetDropAddressResolutionFailed:sum(packetBytes) 48
attr interpolationmode none
attr source packetDropReasonIsAddressResolutionFailed(packetDropped)
attr title "packet drop: address resolution failed, sum(packetBytes)"
scalar AODVgrayhole.host[3].ipv4.ip packetDropHopLimitReached:count 0
attr interpolationmode none
attr source packetDropReasonIsHopLimitReached(packetDropped)
attr title "packet drop: hop limit reached, count"
scalar AODVgrayhole.host[3].ipv4.ip packetDropHopLimitReached:sum(packetBytes) 0
attr interpolationmode none
attr source packetDropReasonIsHopLimitReached(packetDropped)
attr title "packet drop: hop limit reached, sum(packetBytes)"
scalar AODVgrayhole.host[3].ipv4.ip packetDropForwardingDisabled:count 0
attr interpolationmode none
attr source packetDropReasonIsForwardingDisabled(packetDropped)
attr title "packet drop: forwarding disabled, count"
scalar AODVgrayhole.host[3].ipv4.ip packetDropForwardingDisabled:sum(packetBytes) 0
attr interpolationmode none
attr source packetDropReasonIsForwardingDisabled(packetDropped)
attr title "packet drop: forwarding disabled, sum(packetBytes)"
scalar AODVgrayhole.host[3].ipv4.ip packetDropNoInterfaceFound:count 0
attr interpolationmode none
attr source packetDropReasonIsNoInterfaceFound(packetDropped)
attr title "packet drop: no interface found, count"
scalar AODVgrayhole.host[3].ipv4.ip packetDropNoInterfaceFound:sum(packetBytes) 0
attr interpolationmode none
attr source packetDropReasonIsNoInterfaceFound(packetDropped)
attr title "packet drop: no interface found, sum(packetBytes)"
scalar AODVgrayhole.host[3].ipv4.ip packetDropNoRouteFound:count 0
attr interpolationmode none
attr source packetDropReasonIsNoRouteFound(packetDropped)
attr title "packet drop: no route found, count"
scalar AODVgrayhole.host[3].ipv4.ip packetDropNoRouteFound:sum(packetBytes) 0
attr interpolationmode none
attr source packetDropReasonIsNoRouteFound(packetDropped)
attr title "packet drop: no route found, sum(packetBytes)"
scalar AODVgrayhole.host[3].ipv4.ip packetDropUndefined:count 0
attr interpolationmode none
attr source packetDropReasonIsUndefined(packetDropped)
attr title "packet drop: undefined, count"
scalar AODVgrayhole.host[3].ipv4.ip packetDropUndefined:sum(packetBytes) 0
attr interpolationmode none
attr source packetDropReasonIsUndefined(packetDropped)
attr title "packet drop: undefined, sum(packetBytes)"
scalar AODVgrayhole.host[3].ipv4.arp arpResolutionFailed:count 1
attr title "ARP failed resolutions, count"
scalar AODVgrayhole.host[3].ipv4.arp arpResolutionCompleted:count 16
attr title "ARP completed resolutions, count"
scalar AODVgrayhole.host[3].ipv4.arp arpResolutionInitiated:count 7
attr title "ARP initiated resolutions, count"
scalar AODVgrayhole.host[3].ipv4.arp arpReplySent:count 5
attr source arpReplySent
attr title "ARP replies sent, count"
scalar AODVgrayhole.host[3].ipv4.arp arpReplySent:sum(packetBytes) 140
attr source arpReplySent
attr title "ARP replies sent, sum(packetBytes)"
scalar AODVgrayhole.host[3].ipv4.arp arpRequestSent:count 10
attr source arpRequestSent
attr title "ARP request sent, count"
scalar AODVgrayhole.host[3].ipv4.arp arpRequestSent:sum(packetBytes) 280
attr source arpRequestSent
attr title "ARP request sent, sum(packetBytes)"
scalar AODVgrayhole.host[3].udp packetReceived:count 502
attr interpolationmode none
attr source packetReceived
attr title "packets received, count"
scalar AODVgrayhole.host[3].udp packetReceived:sum(packetBytes) 15772
attr interpolationmode none
attr source packetReceived
attr title "packets received, sum(packetBytes)"
scalar AODVgrayhole.host[3].udp packetSent:count 111
attr interpolationmode none
attr source packetSent
attr title "packets sent, count"
scalar AODVgrayhole.host[3].udp packetSent:sum(packetBytes) 3472
attr interpolationmode none
attr source packetSent
attr title "packets sent, sum(packetBytes)"
scalar AODVgrayhole.host[3].udp passedUpPk:count 502
attr interpolationmode none
attr source packetSentToUpper
attr title "packets passed up, count"
scalar AODVgrayhole.host[3].udp droppedPkWrongPort:count 0
attr interpolationmode none
attr source packetDropReasonIsNoPortFound(packetDropped)
attr title "packets dropped (wrong port), count"
scalar AODVgrayhole.host[3].udp droppedPkBadChecksum:count 0
attr interpolationmode none
attr source packetDropReasonIsIncorrectlyReceived(packetDropped)
attr title "packets dropped (checksum error), count"
scalar AODVgrayhole.host[4].lo[0].lo rcvdPkFromHl:count 0
attr interpolationmode none
attr source packetReceivedFromUpper
attr title "packets received from higher layer, count"
scalar AODVgrayhole.host[4].lo[0].lo rcvdPkFromHl:sum(packetBytes) 0
attr interpolationmode none
attr source packetReceivedFromUpper
attr title "packets received from higher layer, sum(packetBytes)"
scalar AODVgrayhole.host[4].lo[0].lo passedUpPk:count 0
attr interpolationmode none
attr source packetSentToUpper
attr title "packets passed to higher layer, count"
scalar AODVgrayhole.host[4].lo[0].lo passedUpPk:sum(packetBytes) 0
attr interpolationmode none
attr source packetSentToUpper
attr title "packets passed to higher layer, sum(packetBytes)"
scalar AODVgrayhole.host[4].wlan[0].mac.queue packetPopped:count 191
attr interpolationmode none
attr title "packet popped, count"
scalar AODVgrayhole.host[4].wlan[0].mac.queue packetPopped:sum(packetBytes) 39376
attr interpolationmode none
attr title "packet popped, sum(packetBytes)"
statistic AODVgrayhole.host[4].wlan[0].mac.queue queueingTime:histogram
field count 191
field mean 0.0036086948815916
field stddev 0.018293403140681
field min 0
field max 0.103884858535
field sum 0.689260722384
field sqrsum 0.066070565349773
attr interpolationmode none
attr source queueingTime(packetPopped)
attr title "queueing times, histogram"
attr unit s
bin	-inf	0
bin	0	181
bin	0.002	2
bin	0.004	1
bin	0.006	0
bin	0.008	0
bin	0.01	0
bin	0.012	0
bin	0.014	0
bin	0.016	0
bin	0.018	0
bin	0.02	0
bin	0.022	0
bin	0.024	0
bin	0.026	0
bin	0.028	0
bin	0.03	0
bin	0.032	0
bin	0.034	0
bin	0.036	0
bin	0.038	0
bin	0.04	0
bin	0.042	0
bin	0.044	0
bin	0.046	0
bin	0.048	0
bin	0.05	0
bin	0.052	0
bin	0.054	0
bin	0.056	0
bin	0.058	0
bin	0.06	0
bin	0.062	0
bin	0.064	0
bin	0.066	0
bin	0.068	0
bin	0.07	0
bin	0.072	0
bin	0.074	0
bin	0.076	0
bin	0.078	0
bin	0.08	0
bin	0.082	0
bin	0.084	0
bin	0.086	0
bin	0.088	0
bin	0.09	0
bin	0.092	2
bin	0.094	0
bin	0.096	4
bin	0.098	0
bin	0.1	0
bin	0.102	1
bin	0.104	0
bin	0.106	0
bin	0.108	0
bin	0.11	0
bin	0.112	0
bin	0.114	0
bin	0.116	0
bin	0.118	0
bin	0.12	0
bin	0.122	0
bin	0.124	0
bin	0.126	0
bin	0.128	0
bin	0.13	0
scalar AODVgrayhole.host[4].wlan[0].mac.queue queueLength:max 3
attr interpolationmode sample-hold
attr source "count(packetPushed) - count(packetPopped) - count(packetRemoved) - count(packetDropped)"
attr title "queue length, max"
scalar AODVgrayhole.host[4].wlan[0].mac.queue queueLength:timeavg 0.0041877221758888
attr interpolationmode sample-hold
attr source "count(packetPushed) - count(packetPopped) - count(packetRemoved) - count(packetDropped)"
attr title "queue length, timeavg"
scalar AODVgrayhole.host[4].wlan[0].mac.queue packetPushed:count 191
attr interpolationmode none
attr title "packet pushed, count"
scalar AODVgrayhole.host[4].wlan[0].mac.queue packetPushed:sum(packetBytes) 39376
attr interpolationmode none
attr title "packet pushed, sum(packetBytes)"
scalar AODVgrayhole.host[4].wlan[0].mac.queue packetDropQueueOverflow:count 0
attr interpolationmode none
attr source packetDropReasonIsQueueOverflow(packetDropped)
attr title "packet drops: queue overflow, count"
scalar AODVgrayhole.host[4].wlan[0].mac.queue packetDropQueueOverflow:sum(packetBytes) 0
attr interpolationmode none
attr source packetDropReasonIsQueueOverflow(packetDropped)
attr title "packet drops: queue overflow, sum(packetBytes)"
scalar AODVgrayhole.host[4].wlan[0].mac.queue packetRemoved:count 0
attr interpolationmode none
attr title "packets removed, count"
scalar AODVgrayhole.host[4].wlan[0].mac.queue packetRemoved:sum(packetBytes) 0
attr interpolationmode none
attr title "packets removed, sum(packetBytes)"
scalar AODVgrayhole.host[4].wlan[0].mac rcvdPkFromLl:count 910
attr interpolationmode none
attr source packetReceivedFromLower
attr title "packets received from lower layer, count"
scalar AODVgrayhole.host[4].wlan[0].mac rcvdPkFromLl:sum(packetBytes) 191522
attr interpolationmode none
attr source packetReceivedFromLower
attr title "packets received from lower layer, sum(packetBytes)"
scalar AODVgrayhole.host[4].wlan[0].mac sentDownPk:count 191
attr interpolationmode none
attr source packetSentToLower
attr title "packets sent to lower layer, count"
scalar AODVgrayhole.host[4].wlan[0].mac sentDownPk:sum(packetBytes) 43769
attr interpolationmode none
attr source packetSentToLower
attr title "packets sent to lower layer, sum(packetBytes)"
scalar AODVgrayhole.host[4].wlan[0].mac rcvdPkFromHl:count 191
attr interpolationmode none
attr source packetReceivedFromUpper
attr title "packets received from higher layer, count"
scalar AODVgrayhole.host[4].wlan[0].mac rcvdPkFromHl:sum(packetBytes) 39376
attr interpolationmode none
attr source packetReceivedFromUpper
attr title "packets received from higher layer, sum(packetBytes)"
scalar AODVgrayhole.host[4].wlan[0].mac passedUpPk:count 605
attr interpolationmode none
attr source packetSentToUpper
attr title "packets passed to higher layer, count"
scalar AODVgrayhole.host[4].wlan[0].mac passedUpPk:sum(packetBytes) 59820
attr interpolationmode none
attr source packetSentToUpper
attr title "packets passed to higher layer, sum(packetBytes)"
scalar AODVgrayhole.host[4].wlan[0].mac packetDropIncorrectlyReceived:count 0
attr interpolationmode none
attr source packetDropReasonIsIncorrectlyReceived(packetDropped)
attr title "packet drop: incorrectly received, count"
scalar AODVgrayhole.host[4].wlan[0].mac packetDropIncorrectlyReceived:sum(packetBytes) 0
attr interpolationmode none
attr source packetDropReasonIsIncorrectlyReceived(packetDropped)
attr title "packet drop: incorrectly received, sum(packetBytes)"
scalar AODVgrayhole.host[4].wlan[0].mac packetDropInterfaceDown:count 0
attr interpolationmode none
attr source packetDropReasonIsInterfaceDown(packetDropped)
attr title "packet drop: interface down, count"
scalar AODVgrayhole.host[4].wlan[0].mac packetDropInterfaceDown:sum(packetBytes) 0
attr interpolationmode none
attr source packetDropReasonIsInterfaceDown(packetDropped)
attr title "packet drop: interface down, sum(packetBytes)"
scalar AODVgrayhole.host[4].wlan[0].mac packetDropNotAddressedToUs:count 305
attr interpolationmode none
attr source packetDropReasonIsNotAddressedToUs(packetDropped)
attr title "packet drop: not addressed to us, count"
scalar AODVgrayhole.host[4].wlan[0].mac packetDropNotAddressedToUs:sum(packetBytes) 117787
attr interpolationmode none
attr source packetDropReasonIsNotAddressedToUs(packetDropped)
attr title "packet drop: not addressed to us, sum(packetBytes)"
scalar AODVgrayhole.host[4].wlan[0].mac linkBroken:count 8
attr interpolationmode none
attr source linkBroken
attr title "link break, count"
scalar AODVgrayhole.host[4].wlan[0].radio radioMode:count 3
attr interpolationmode sample-hold
attr source radioModeChanged
attr title "Radio mode, count"
scalar AODVgrayhole.host[4].wlan[0].radio receptionState:count 1911
attr interpolationmode sample-hold
attr source receptionStateChanged
attr title "Radio reception state, count"
scalar AODVgrayhole.host[4].wlan[0].radio transmissionState:count 383
attr interpolationmode sample-hold
attr source transmissionStateChanged
attr title "Radio transmission state, count"
statistic AODVgrayhole.host[4].wlan[0].radio minSnir:histogram
field count 0
field mean -nan
field stddev nan
field min nan
field max nan
field sum 0
field sqrsum 0
attr source minimumSnir(packetSentToUpper)
attr title "Min SNIR, histogram"
bin	-inf	0
bin	0	0
bin	1	0
statistic AODVgrayhole.host[4].wlan[0].radio packetErrorRate:histogram
field count 910
field mean 0.12307692307692
field stddev 0.32870614209307
field min 0
field max 1
field sum 112
field sqrsum 112
attr source packetErrorRate(packetSentToUpper)
attr title "Packet error rate, histogram"
bin	-inf	0
bin	0	798
bin	1	112
bin	2	0
statistic AODVgrayhole.host[4].wlan[0].radio bitErrorRate:histogram
field count 910
field mean 0.12307692307692
field stddev 0.32870614209307
field min 0
field max 1
field sum 112
field sqrsum 112
attr source bitErrorRate(packetSentToUpper)
attr title "Bit error rate, histogram"
bin	-inf	0
bin	0	798
bin	1	112
bin	2	0
statistic AODVgrayhole.host[4].wlan[0].radio symbolErrorRate:histogram
field count 910
field mean 0.12307692307692
field stddev 0.32870614209307
field min 0
field max 1
field sum 112
field sqrsum 112
attr source symbolErrorRate(packetSentToUpper)
attr title "Symbol error rate, histogram"
bin	-inf	0
bin	0	798
bin	1	112
bin	2	0
scalar AODVgrayhole.host[4].ipv4.ip packetDropAddressResolutionFailed:count 0
attr interpolationmode none
attr source packetDropReasonIsAddressResolutionFailed(packetDropped)
attr title "packet drop: address resolution failed, count"
scalar AODVgrayhole.host[4].ipv4.ip packetDropAddressResolutionFailed:sum(packetBytes) 0
attr interpolationmode none
attr source packetDropReasonIsAddressResolutionFailed(packetDropped)
attr title "packet drop: address resolution failed, sum(packetBytes)"
scalar AODVgrayhole.host[4].ipv4.ip packetDropHopLimitReached:count 0
attr interpolationmode none
attr source packetDropReasonIsHopLimitReached(packetDropped)
attr title "packet drop: hop limit reached, count"
scalar AODVgrayhole.host[4].ipv4.ip packetDropHopLimitReached:sum(packetBytes) 0
attr interpolationmode none
attr source packetDropReasonIsHopLimitReached(packetDropped)
attr title "packet drop: hop limit reached, sum(packetBytes)"
scalar AODVgrayhole.host[4].ipv4.ip packetDropForwardingDisabled:count 0
attr interpolationmode none
attr source packetDropReasonIsForwardingDisabled(packetDropped)
attr title "packet drop: forwarding disabled, count"
scalar AODVgrayhole.host[4].ipv4.ip packetDropForwardingDisabled:sum(packetBytes) 0
attr interpolationmode none
attr source packetDropReasonIsForwardingDisabled(packetDropped)
attr title "packet drop: forwarding disabled, sum(packetBytes)"
scalar AODVgrayhole.host[4].ipv4.ip packetDropNoInterfaceFound:count 0
attr interpolationmode none
attr source packetDropReasonIsNoInterfaceFound(packetDropped)
attr title "packet drop: no interface found, count"
scalar AODVgrayhole.host[4].ipv4.ip packetDropNoInterfaceFound:sum(packetBytes) 0
attr interpolationmode none
attr source packetDropReasonIsNoInterfaceFound(packetDropped)
attr title "packet drop: no interface found, sum(packetBytes)"
scalar AODVgrayhole.host[4].ipv4.ip packetDropNoRouteFound:count 0
attr interpolationmode none
attr source packetDropReasonIsNoRouteFound(packetDropped)
attr title "packet drop: no route found, count"
scalar AODVgrayhole.host[4].ipv4.ip packetDropNoRouteFound:sum(packetBytes) 0
attr interpolationmode none
attr source packetDropReasonIsNoRouteFound(packetDropped)
attr title "packet drop: no route found, sum(packetBytes)"
scalar AODVgrayhole.host[4].ipv4.ip packetDropUndefined:count 0
attr interpolationmode none
attr source packetDropReasonIsUndefined(packetDropped)
attr title "packet drop: undefined, count"
scalar AODVgrayhole.host[4].ipv4.ip packetDropUndefined:sum(packetBytes) 0
attr interpolationmode none
attr source packetDropReasonIsUndefined(packetDropped)
attr title "packet drop: undefined, sum(packetBytes)"
scalar AODVgrayhole.host[4].ipv4.arp arpResolutionFailed:count 0
attr title "ARP failed resolutions, count"
scalar AODVgrayhole.host[4].ipv4.arp arpResolutionCompleted:count 29
attr title "ARP completed resolutions, count"
scalar AODVgrayhole.host[4].ipv4.arp arpResolutionInitiated:count 4
attr title "ARP initiated resolutions, count"
scalar AODVgrayhole.host[4].ipv4.arp arpReplySent:count 6
attr source arpReplySent
attr title "ARP replies sent, count"
scalar AODVgrayhole.host[4].ipv4.arp arpReplySent:sum(packetBytes) 168
attr source arpReplySent
attr title "ARP replies sent, sum(packetBytes)"
scalar AODVgrayhole.host[4].ipv4.arp arpRequestSent:count 4
attr source arpRequestSent
attr title "ARP request sent, count"
scalar AODVgrayhole.host[4].ipv4.arp arpRequestSent:sum(packetBytes) 112
attr source arpRequestSent
attr title "ARP request sent, sum(packetBytes)"
scalar AODVgrayhole.host[4].udp packetReceived:count 495
attr interpolationmode none
attr source packetReceived
attr title "packets received, count"
scalar AODVgrayhole.host[4].udp packetReceived:sum(packetBytes) 15608
attr interpolationmode none
attr source packetReceived
attr title "packets received, sum(packetBytes)"
scalar AODVgrayhole.host[4].udp packetSent:count 120
attr interpolationmode none
attr source packetSent
attr title "packets sent, count"
scalar AODVgrayhole.host[4].udp packetSent:sum(packetBytes) 3756
attr interpolationmode none
attr source packetSent
attr title "packets sent, sum(packetBytes)"
scalar AODVgrayhole.host[4].udp passedUpPk:count 495
attr interpolationmode none
attr source packetSentToUpper
attr title "packets passed up, count"
scalar AODVgrayhole.host[4].udp droppedPkWrongPort:count 0
attr interpolationmode none
attr source packetDropReasonIsNoPortFound(packetDropped)
attr title "packets dropped (wrong port), count"
scalar AODVgrayhole.host[4].udp droppedPkBadChecksum:count 0
attr interpolationmode none
attr source packetDropReasonIsIncorrectlyReceived(packetDropped)
attr title "packets dropped (checksum error), count"
scalar AODVgrayhole.host[5].lo[0].lo rcvdPkFromHl:count 0
attr interpolationmode none
attr source packetReceivedFromUpper
attr title "packets received from higher layer, count"
scalar AODVgrayhole.host[5].lo[0].lo rcvdPkFromHl:sum(packetBytes) 0
attr interpolationmode none
attr source packetReceivedFromUpper
attr title "packets received from higher layer, sum(packetBytes)"
scalar AODVgrayhole.host[5].lo[0].lo passedUpPk:count 0
attr interpolationmode none
attr source packetSentToUpper
attr title "packets passed to higher layer, count"
scalar AODVgrayhole.host[5].lo[0].lo passedUpPk:sum(packetBytes) 0
attr interpolationmode none
attr source packetSentToUpper
attr title "packets passed to higher layer, sum(packetBytes)"
scalar AODVgrayhole.host[5].wlan[0].mac.queue packetPopped:count 179
attr interpolationmode none
attr title "packet popped, count"
scalar AODVgrayhole.host[5].wlan[0].mac.queue packetPopped:sum(packetBytes) 33320
attr interpolationmode none
attr title "packet popped, sum(packetBytes)"
statistic AODVgrayhole.host[5].wlan[0].mac.queue queueingTime:histogram
field count 179
field mean 2.6500197418994e-05
field stddev 0.00024265560175489
field min 0
field max 0.002300738076
field sum 0.004743535338
field sqrsum 1.060665453214e-05
attr interpolationmode none
attr source queueingTime(packetPopped)
attr title "queueing times, histogram"
attr unit s
bin	-inf	0
bin	0	176
bin	5e-05	0
bin	0.0001	1
bin	0.00015	0
bin	0.0002	0
bin	0.00025	0
bin	0.0003	0
bin	0.00035	0
bin	0.0004	0
bin	0.00045	0
bin	0.0005	0
bin	0.00055	0
bin	0.0006	0
bin	0.00065	0
bin	0.0007	0
bin	0.00075	0
bin	0.0008	0
bin	0.00085	0
bin	0.0009	0
bin	0.00095	0
bin	0.001	0
bin	0.00105	0
bin	0.0011	0
bin	0.00115	0
bin	0.0012	0
bin	0.00125	0
bin	0.0013	0
bin	0.00135	0
bin	0.0014	0
bin	0.00145	0
bin	0.0015	0
bin	0.00155	0
bin	0.0016	0
bin	0.00165	0
bin	0.0017	0
bin	0.00175	0
bin	0.0018	0
bin	0.00185	0
bin	0.0019	0
bin	0.00195	0
bin	0.002	0
bin	0.00205	0
bin	0.0021	0
bin	0.00215	0
bin	0.0022	0
bin	0.00225	0
bin	0.0023	2
bin	0.00235	0
bin	0.0024	0
bin	0.00245	0
bin	0.0025	0
bin	0.00255	0
bin	0.0026	0
bin	0.00265	0
bin	0.0027	0
bin	0.00275	0
bin	0.0028	0
bin	0.00285	0
bin	0.0029	0
scalar AODVgrayhole.host[5].wlan[0].mac.queue queueLength:max 1
attr interpolationmode sample-hold
attr source "count(packetPushed) - count(packetPopped) - count(packetRemoved) - count(packetDropped)"
attr title "queue length, max"
scalar AODVgrayhole.host[5].wlan[0].mac.queue queueLength:timeavg 2.8820302835263e-05
attr interpolationmode sample-hold
attr source "count(packetPushed) - count(packetPopped) - count(packetRemoved) - count(packetDropped)"
attr title "queue length, timeavg"
scalar AODVgrayhole.host[5].wlan[0].mac.queue packetPushed:count 179
attr interpolationmode none
attr title "packet pushed, count"
scalar AODVgrayhole.host[5].wlan[0].mac.queue packetPushed:sum(packetBytes) 33320
attr interpolationmode none
attr title "packet pushed, sum(packetBytes)"
scalar AODVgrayhole.host[5].wlan[0].mac.queue packetDropQueueOverflow:count 0
attr interpolationmode none
attr source packetDropReasonIsQueueOverflow(packetDropped)
attr title "packet drops: queue overflow, count"
scalar AODVgrayhole.host[5].wlan[0].mac.queue packetDropQueueOverflow:sum(packetBytes) 0
attr interpolationmode none
attr source packetDropReasonIsQueueOverflow(packetDropped)
attr title "packet drops: queue overflow, sum(packetBytes)"
scalar AODVgrayhole.host[5].wlan[0].mac.queue packetRemoved:count 0
attr interpolationmode none
attr title "packets removed, count"
scalar AODVgrayhole.host[5].wlan[0].mac.queue packetRemoved:sum(packetBytes) 0
attr interpolationmode none
attr title "packets removed, sum(packetBytes)"
scalar AODVgrayhole.host[5].wlan[0].mac rcvdPkFromLl:count 1132
attr interpolationmode none
attr source packetReceivedFromLower
attr title "packets received from lower layer, count"
scalar AODVgrayhole.host[5].wlan[0].mac rcvdPkFromLl:sum(packetBytes) 253384
attr interpolationmode none
attr source packetReceivedFromLower
attr title "packets received from lower layer, sum(packetBytes)"
scalar AODVgrayhole.host[5].wlan[0].mac sentDownPk:count 179
attr interpolationmode none
attr source packetSentToLower
attr title "packets sent to lower layer, count"
scalar AODVgrayhole.host[5].wlan[0].mac sentDownPk:sum(packetBytes) 37437
attr interpolationmode none
attr source packetSentToLower
attr title "packets sent to lower layer, sum(packetBytes)"
scalar AODVgrayhole.host[5].wlan[0].mac rcvdPkFromHl:count 179
attr interpolationmode none
attr source packetReceivedFromUpper
attr title "packets received from higher layer, count"
scalar AODVgrayhole.host[5].wlan[0].mac rcvdPkFromHl:sum(packetBytes) 33320
attr interpolationmode none
attr source packetReceivedFromUpper
attr title "packets received from higher layer, sum(packetBytes)"
scalar AODVgrayhole.host[5].wlan[0].mac passedUpPk:count 712
attr interpolationmode none
attr source packetSentToUpper
attr title "packets passed to higher layer, count"
scalar AODVgrayhole.host[5].wlan[0].mac passedUpPk:sum(packetBytes) 60400
attr interpolationmode none
attr source packetSentToUpper
attr title "packets passed to higher layer, sum(packetBytes)"
scalar AODVgrayhole.host[5].wlan[0].mac packetDropIncorrectlyReceived:count 0
attr interpolationmode none
attr source packetDropReasonIsIncorrectlyReceived(packetDropped)
attr title "packet drop: incorrectly received, count"
scalar AODVgrayhole.host[5].wlan[0].mac packetDropIncorrectlyReceived:sum(packetBytes) 0
attr interpolationmode none
attr source packetDropReasonIsIncorrectlyReceived(packetDropped)
attr title "packet drop: incorrectly received, sum(packetBytes)"
scalar AODVgrayhole.host[5].wlan[0].mac packetDropInterfaceDown:count 0
attr interpolationmode none
attr source packetDropReasonIsInterfaceDown(packetDropped)
attr title "packet drop: interface down, count"
scalar AODVgrayhole.host[5].wlan[0].mac packetDropInterfaceDown:sum(packetBytes) 0
attr interpolationmode none
attr source packetDropReasonIsInterfaceDown(packetDropped)
attr title "packet drop: interface down, sum(packetBytes)"
scalar AODVgrayhole.host[5].wlan[0].mac packetDropNotAddressedToUs:count 420
attr interpolationmode none
attr source packetDropReasonIsNotAddressedToUs(packetDropped)
attr title "packet drop: not addressed to us, count"
scalar AODVgrayhole.host[5].wlan[0].mac packetDropNotAddressedToUs:sum(packetBytes) 176608
attr interpolationmode none
attr source packetDropReasonIsNotAddressedToUs(packetDropped)
attr title "packet drop: not addressed to us, sum(packetBytes)"
scalar AODVgrayhole.host[5].wlan[0].mac linkBroken:count 3
attr interpolationmode none
attr source linkBroken
attr title "link break, count"
scalar AODVgrayhole.host[5].wlan[0].radio radioMode:count 3
attr interpolationmode sample-hold
attr source radioModeChanged
attr title "Radio mode, count"
scalar AODVgrayhole.host[5].wlan[0].radio receptionState:count 2381
attr interpolationmode sample-hold
attr source receptionStateChanged
attr title "Radio reception state, count"
scalar AODVgrayhole.host[5].wlan[0].radio transmissionState:count 359
attr interpolationmode sample-hold
attr source transmissionStateChanged
attr title "Radio transmission state, count"
statistic AODVgrayhole.host[5].wlan[0].radio minSnir:histogram
field count 0
field mean -nan
field stddev nan
field min nan
field max nan
field sum 0
field sqrsum 0
attr source minimumSnir(packetSentToUpper)
attr title "Min SNIR, histogram"
bin	-inf	0
bin	0	0
bin	1	0
statistic AODVgrayhole.host[5].wlan[0].radio packetErrorRate:histogram
field count 1132
field mean 0.13074204946996
field stddev 0.33726703218331
field min 0
field max 1
field sum 148
field sqrsum 148
attr source packetErrorRate(packetSentToUpper)
attr title "Packet error rate, histogram"
bin	-inf	0
bin	0	984
bin	1	148
bin	2	0
statistic AODVgrayhole.host[5].wlan[0].radio bitErrorRate:histogram
field count 1132
field mean 0.13074204946996
field stddev 0.33726703218331
field min 0
field max 1
field sum 148
field sqrsum 148
attr source bitErrorRate(packetSentToUpper)
attr title "Bit error rate, histogram"
bin	-inf	0
bin	0	984
bin	1	148
bin	2	0
statistic AODVgrayhole.host[5].wlan[0].radio symbolErrorRate:histogram
field count 1132
field mean 0.13074204946996
field stddev 0.33726703218331
field min 0
field max 1
field sum 148
field sqrsum 148
attr source symbolErrorRate(packetSentToUpper)
attr title "Symbol error rate, histogram"
bin	-inf	0
bin	0	984
bin	1	148
bin	2	0
scalar AODVgrayhole.host[5].ipv4.ip packetDropAddressResolutionFailed:count 0
attr interpolationmode none
attr source packetDropReasonIsAddressResolutionFailed(packetDropped)
attr title "packet drop: address resolution failed, count"
scalar AODVgrayhole.host[5].ipv4.ip packetDropAddressResolutionFailed:sum(packetBytes) 0
attr interpolationmode none
attr source packetDropReasonIsAddressResolutionFailed(packetDropped)
attr title "packet drop: address resolution failed, sum(packetBytes)"
scalar AODVgrayhole.host[5].ipv4.ip packetDropHopLimitReached:count 1
attr interpolationmode none
attr source packetDropReasonIsHopLimitReached(packetDropped)
attr title "packet drop: hop limit reached, count"
scalar AODVgrayhole.host[5].ipv4.ip packetDropHopLimitReached:sum(packetBytes) 540
attr interpolationmode none
attr source packetDropReasonIsHopLimitReached(packetDropped)
attr title "packet drop: hop limit reached, sum(packetBytes)"
scalar AODVgrayhole.host[5].ipv4.ip packetDropForwardingDisabled:count 0
attr interpolationmode none
attr source packetDropReasonIsForwardingDisabled(packetDropped)
attr title "packet drop: forwarding disabled, count"
scalar AODVgrayhole.host[5].ipv4.ip packetDropForwardingDisabled:sum(packetBytes) 0
attr interpolationmode none
attr source packetDropReasonIsForwardingDisabled(packetDropped)
attr title "packet drop: forwarding disabled, sum(packetBytes)"
scalar AODVgrayhole.host[5].ipv4.ip packetDropNoInterfaceFound:count 0
attr interpolationmode none
attr source packetDropReasonIsNoInterfaceFound(packetDropped)
attr title "packet drop: no interface found, count"
scalar AODVgrayhole.host[5].ipv4.ip packetDropNoInterfaceFound:sum(packetBytes) 0
attr interpolationmode none
attr source packetDropReasonIsNoInterfaceFound(packetDropped)
attr title "packet drop: no interface found, sum(packetBytes)"
scalar AODVgrayhole.host[5].ipv4.ip packetDropNoRouteFound:count 0
attr interpolationmode none
attr source packetDropReasonIsNoRouteFound(packetDropped)
attr title "packet drop: no route found, count"
scalar AODVgrayhole.host[5].ipv4.ip packetDropNoRouteFound:sum(packetBytes) 0
attr interpolationmode none
attr source packetDropReasonIsNoRouteFound(packetDropped)
attr title "packet drop: no route found, sum(packetBytes)"
scalar AODVgrayhole.host[5].ipv4.ip packetDropUndefined:count 0
attr interpolationmode none
attr source packetDropReasonIsUndefined(packetDropped)
attr title "packet drop: undefined, count"
scalar AODVgrayhole.host[5].ipv4.ip packetDropUndefined:sum(packetBytes) 0
attr interpolationmode none
attr source packetDropReasonIsUndefined(packetDropped)
attr title "packet drop: undefined, sum(packetBytes)"
scalar AODVgrayhole.host[5].ipv4.arp arpResolutionFailed:count 0
attr title "ARP failed resolutions, count"
scalar AODVgrayhole.host[5].ipv4.arp arpResolutionCompleted:count 26
attr title "ARP completed resolutions, count"
scalar AODVgrayhole.host[5].ipv4.arp arpResolutionInitiated:count 5
attr title "ARP initiated resolutions, count"
[...]
attr interpolationmode none
attr source packetDropReasonIsAddressResolutionFailed(packetDropped)
attr title "packet drop: address resolution failed, count"
scalar AODVgrayhole.receiver.ipv4.ip packetDropAddressResolutionFailed:sum(packetBytes) 0
attr interpolationmode none
attr source packetDropReasonIsAddressResolutionFailed(packetDropped)
attr title "packet drop: address resolution failed, sum(packetBytes)"
scalar AODVgrayhole.receiver.ipv4.ip packetDropHopLimitReached:count 0
attr interpolationmode none
attr source packetDropReasonIsHopLimitReached(packetDropped)
attr title "packet drop: hop limit reached, count"
scalar AODVgrayhole.receiver.ipv4.ip packetDropHopLimitReached:sum(packetBytes) 0
attr interpolationmode none
attr source packetDropReasonIsHopLimitReached(packetDropped)
attr title "packet drop: hop limit reached, sum(packetBytes)"
scalar AODVgrayhole.receiver.ipv4.ip packetDropForwardingDisabled:count 0
attr interpolationmode none
attr source packetDropReasonIsForwardingDisabled(packetDropped)
attr title "packet drop: forwarding disabled, count"
scalar AODVgrayhole.receiver.ipv4.ip packetDropForwardingDisabled:sum(packetBytes) 0
attr interpolationmode none
attr source packetDropReasonIsForwardingDisabled(packetDropped)
attr title "packet drop: forwarding disabled, sum(packetBytes)"
scalar AODVgrayhole.receiver.ipv4.ip packetDropNoInterfaceFound:count 0
attr interpolationmode none
attr source packetDropReasonIsNoInterfaceFound(packetDropped)
attr title "packet drop: no interface found, count"
scalar AODVgrayhole.receiver.ipv4.ip packetDropNoInterfaceFound:sum(packetBytes) 0
attr interpolationmode none
attr source packetDropReasonIsNoInterfaceFound(packetDropped)
attr title "packet drop: no interface found, sum(packetBytes)"
scalar AODVgrayhole.receiver.ipv4.ip packetDropNoRouteFound:count 0
attr interpolationmode none
attr source packetDropReasonIsNoRouteFound(packetDropped)
attr title "packet drop: no route found, count"
scalar AODVgrayhole.receiver.ipv4.ip packetDropNoRouteFound:sum(packetBytes) 0
attr interpolationmode none
attr source packetDropReasonIsNoRouteFound(packetDropped)
attr title "packet drop: no route found, sum(packetBytes)"
scalar AODVgrayhole.receiver.ipv4.ip packetDropUndefined:count 0
attr interpolationmode none
attr source packetDropReasonIsUndefined(packetDropped)
attr title "packet drop: undefined, count"
scalar AODVgrayhole.receiver.ipv4.ip packetDropUndefined:sum(packetBytes) 0
attr interpolationmode none
attr source packetDropReasonIsUndefined(packetDropped)
attr title "packet drop: undefined, sum(packetBytes)"
scalar AODVgrayhole.receiver.ipv4.arp arpResolutionFailed:count 0
attr title "ARP failed resolutions, count"
scalar AODVgrayhole.receiver.ipv4.arp arpResolutionCompleted:count 23
attr title "ARP completed resolutions, count"
scalar AODVgrayhole.receiver.ipv4.arp arpResolutionInitiated:count 7
attr title "ARP initiated resolutions, count"
scalar AODVgrayhole.receiver.ipv4.arp arpReplySent:count 0
attr source arpReplySent
attr title "ARP replies sent, count"
scalar AODVgrayhole.receiver.ipv4.arp arpReplySent:sum(packetBytes) 0
attr source arpReplySent
attr title "ARP replies sent, sum(packetBytes)"
scalar AODVgrayhole.receiver.ipv4.arp arpRequestSent:count 11
attr source arpRequestSent
attr title "ARP request sent, count"
scalar AODVgrayhole.receiver.ipv4.arp arpRequestSent:sum(packetBytes) 308
attr source arpRequestSent
attr title "ARP request sent, sum(packetBytes)"
scalar AODVgrayhole.receiver.udp packetReceived:count 220
attr interpolationmode none
attr source packetReceived
attr title "packets received, count"
scalar AODVgrayhole.receiver.udp packetReceived:sum(packetBytes) 46584
attr interpolationmode none
attr source packetReceived
attr title "packets received, sum(packetBytes)"
scalar AODVgrayhole.receiver.udp packetSent:count 79
attr interpolationmode none
attr source packetSent
attr title "packets sent, count"
scalar AODVgrayhole.receiver.udp packetSent:sum(packetBytes) 2364
attr interpolationmode none
attr source packetSent
attr title "packets sent, sum(packetBytes)"
scalar AODVgrayhole.receiver.udp passedUpPk:count 220
attr interpolationmode none
attr source packetSentToUpper
attr title "packets passed up, count"
scalar AODVgrayhole.receiver.udp droppedPkWrongPort:count 0
attr interpolationmode none
attr source packetDropReasonIsNoPortFound(packetDropped)
attr title "packets dropped (wrong port), count"
scalar AODVgrayhole.receiver.udp droppedPkBadChecksum:count 0
attr interpolationmode none
attr source packetDropReasonIsIncorrectlyReceived(packetDropped)
attr title "packets dropped (checksum error), count"
scalar AODVgrayhole.receiver.app[0] packetReceived:count 81
attr interpolationmode none
attr source packetReceived
attr title "packets received, count"
scalar AODVgrayhole.receiver.app[0] packetReceived:sum(packetBytes) 41472
attr interpolationmode none
attr source packetReceived
attr title "packets received, sum(packetBytes)"
statistic AODVgrayhole.receiver.app[0] endToEndDelay:histogram
field count 81
field mean 0.51897927072416
field stddev 1.0765010747551
field min 0.011502875394
field max 5.439129155946
field sum 42.037320928657
field sqrsum 114.52486327466
attr interpolationmode none
attr source dataAge(packetReceived)
attr title "end-to-end delay, histogram"
attr unit s
bin	-inf	0
bin	0	53
bin	0.1	3
bin	0.2	0
bin	0.3	3
bin	0.4	1
bin	0.5	0
bin	0.6	1
bin	0.7	0
bin	0.8	7
bin	0.9	0
bin	1	0
bin	1.1	3
bin	1.2	0
bin	1.3	1
bin	1.4	1
bin	1.5	1
bin	1.6	0
bin	1.7	0
bin	1.8	0
bin	1.9	0
bin	2	0
bin	2.1	1
bin	2.2	0
bin	2.3	0
bin	2.4	1
bin	2.5	1
bin	2.6	0
bin	2.7	0
bin	2.8	0
bin	2.9	0
bin	3	0
bin	3.1	0
bin	3.2	0
bin	3.3	0
bin	3.4	1
bin	3.5	0
bin	3.6	0
bin	3.7	0
bin	3.8	0
bin	3.9	0
bin	4	0
bin	4.1	0
bin	4.2	0
bin	4.3	0
bin	4.4	2
bin	4.5	0
bin	4.6	0
bin	4.7	0
bin	4.8	0
bin	4.9	0
bin	5	0
bin	5.1	0
bin	5.2	0
bin	5.3	0
bin	5.4	1
bin	5.5	0
bin	5.6	0
bin	5.7	0
bin	5.8	0
bin	5.9	0
bin	6	0
bin	6.1	0
bin	6.2	0
bin	6.3	0
bin	6.4	0
bin	6.5	0
bin	6.6	0
bin	6.7	0
bin	6.8	0
scalar AODVgrayhole.ntu_Blackholer.lo[0].lo rcvdPkFromHl:count 0
attr interpolationmode none
attr source packetReceivedFromUpper
attr title "packets received from higher layer, count"
scalar AODVgrayhole.ntu_Blackholer.lo[0].lo rcvdPkFromHl:sum(packetBytes) 0
attr interpolationmode none
attr source packetReceivedFromUpper
attr title "packets received from higher layer, sum(packetBytes)"
scalar AODVgrayhole.ntu_Blackholer.lo[0].lo passedUpPk:count 0
attr interpolationmode none
attr source packetSentToUpper
attr title "packets passed to higher layer, count"
scalar AODVgrayhole.ntu_Blackholer.lo[0].lo passedUpPk:sum(packetBytes) 0
attr interpolationmode none
attr source packetSentToUpper
attr title "packets passed to higher layer, sum(packetBytes)"
scalar AODVgrayhole.ntu_Blackholer.wlan[0].mac.queue packetPopped:count 223
attr interpolationmode none
attr title "packet popped, count"
scalar AODVgrayhole.ntu_Blackholer.wlan[0].mac.queue packetPopped:sum(packetBytes) 43700
attr interpolationmode none
attr title "packet popped, sum(packetBytes)"
statistic AODVgrayhole.ntu_Blackholer.wlan[0].mac.queue queueingTime:histogram
field count 223
field mean 0.0023890897887399
field stddev 0.014533017711538
field min 0
field max 0.102300728422
field sum 0.532767022889
field sqrsum 0.048161138298625
attr interpolationmode none
attr source queueingTime(packetPopped)
attr title "queueing times, histogram"
attr unit s
bin	-inf	0
bin	0	213
bin	0.002	2
bin	0.004	1
bin	0.006	0
bin	0.008	0
bin	0.01	1
bin	0.012	0
bin	0.014	0
bin	0.016	0
bin	0.018	0
bin	0.02	0
bin	0.022	0
bin	0.024	1
bin	0.026	0
bin	0.028	0
bin	0.03	0
bin	0.032	0
bin	0.034	0
bin	0.036	0
bin	0.038	0
bin	0.04	0
bin	0.042	0
bin	0.044	0
bin	0.046	0
bin	0.048	0
bin	0.05	0
bin	0.052	0
bin	0.054	0
bin	0.056	0
bin	0.058	0
bin	0.06	0
bin	0.062	0
bin	0.064	0
bin	0.066	0
bin	0.068	0
bin	0.07	0
bin	0.072	0
bin	0.074	0
bin	0.076	0
bin	0.078	0
bin	0.08	0
bin	0.082	0
bin	0.084	0
bin	0.086	0
bin	0.088	0
bin	0.09	1
bin	0.092	0
bin	0.094	1
bin	0.096	0
bin	0.098	2
bin	0.1	0
bin	0.102	1
bin	0.104	0
bin	0.106	0
bin	0.108	0
bin	0.11	0
bin	0.112	0
bin	0.114	0
bin	0.116	0
bin	0.118	0
bin	0.12	0
scalar AODVgrayhole.ntu_Blackholer.wlan[0].mac.queue queueLength:max 2
attr interpolationmode sample-hold
attr source "count(packetPushed) - count(packetPopped) - count(packetRemoved) - count(packetDropped)"
attr title "queue length, max"
scalar AODVgrayhole.ntu_Blackholer.wlan[0].mac.queue queueLength:timeavg 0.0032369246242522
attr interpolationmode sample-hold
attr source "count(packetPushed) - count(packetPopped) - count(packetRemoved) - count(packetDropped)"
attr title "queue length, timeavg"
scalar AODVgrayhole.ntu_Blackholer.wlan[0].mac.queue packetPushed:count 223
attr interpolationmode none
attr title "packet pushed, count"
scalar AODVgrayhole.ntu_Blackholer.wlan[0].mac.queue packetPushed:sum(packetBytes) 43700
attr interpolationmode none
attr title "packet pushed, sum(packetBytes)"
scalar AODVgrayhole.ntu_Blackholer.wlan[0].mac.queue packetDropQueueOverflow:count 0
attr interpolationmode none
attr source packetDropReasonIsQueueOverflow(packetDropped)
attr title "packet drops: queue overflow, count"
scalar AODVgrayhole.ntu_Blackholer.wlan[0].mac.queue packetDropQueueOverflow:sum(packetBytes) 0
attr interpolationmode none
attr source packetDropReasonIsQueueOverflow(packetDropped)
attr title "packet drops: queue overflow, sum(packetBytes)"
scalar AODVgrayhole.ntu_Blackholer.wlan[0].mac.queue packetRemoved:count 0
attr interpolationmode none
attr title "packets removed, count"
scalar AODVgrayhole.ntu_Blackholer.wlan[0].mac.queue packetRemoved:sum(packetBytes) 0
attr interpolationmode none
attr title "packets removed, sum(packetBytes)"
scalar AODVgrayhole.ntu_Blackholer.wlan[0].mac rcvdPkFromLl:count 1020
attr interpolationmode none
attr source packetReceivedFromLower
attr title "packets received from lower layer, count"
scalar AODVgrayhole.ntu_Blackholer.wlan[0].mac rcvdPkFromLl:sum(packetBytes) 225424
attr interpolationmode none
attr source packetReceivedFromLower
attr title "packets received from lower layer, sum(packetBytes)"
scalar AODVgrayhole.ntu_Blackholer.wlan[0].mac sentDownPk:count 223
attr interpolationmode none
attr source packetSentToLower
attr title "packets sent to lower layer, count"
scalar AODVgrayhole.ntu_Blackholer.wlan[0].mac sentDownPk:sum(packetBytes) 48829
attr interpolationmode none
attr source packetSentToLower
attr title "packets sent to lower layer, sum(packetBytes)"
scalar AODVgrayhole.ntu_Blackholer.wlan[0].mac rcvdPkFromHl:count 223
attr interpolationmode none
attr source packetReceivedFromUpper
attr title "packets received from higher layer, count"
scalar AODVgrayhole.ntu_Blackholer.wlan[0].mac rcvdPkFromHl:sum(packetBytes) 43700
attr interpolationmode none
attr source packetReceivedFromUpper
attr title "packets received from higher layer, sum(packetBytes)"
scalar AODVgrayhole.ntu_Blackholer.wlan[0].mac passedUpPk:count 701
attr interpolationmode none
attr source packetSentToUpper
attr title "packets passed to higher layer, count"
scalar AODVgrayhole.ntu_Blackholer.wlan[0].mac passedUpPk:sum(packetBytes) 94416
attr interpolationmode none
attr source packetSentToUpper
attr title "packets passed to higher layer, sum(packetBytes)"
scalar AODVgrayhole.ntu_Blackholer.wlan[0].mac packetDropIncorrectlyReceived:count 0
attr interpolationmode none
attr source packetDropReasonIsIncorrectlyReceived(packetDropped)
attr title "packet drop: incorrectly received, count"
scalar AODVgrayhole.ntu_Blackholer.wlan[0].mac packetDropIncorrectlyReceived:sum(packetBytes) 0
attr interpolationmode none
attr source packetDropReasonIsIncorrectlyReceived(packetDropped)
attr title "packet drop: incorrectly received, sum(packetBytes)"
scalar AODVgrayhole.ntu_Blackholer.wlan[0].mac packetDropInterfaceDown:count 0
attr interpolationmode none
attr source packetDropReasonIsInterfaceDown(packetDropped)
attr title "packet drop: interface down, count"
scalar AODVgrayhole.ntu_Blackholer.wlan[0].mac packetDropInterfaceDown:sum(packetBytes) 0
attr interpolationmode none
attr source packetDropReasonIsInterfaceDown(packetDropped)
attr title "packet drop: interface down, sum(packetBytes)"
scalar AODVgrayhole.ntu_Blackholer.wlan[0].mac packetDropNotAddressedToUs:count 319
attr interpolationmode none
attr source packetDropReasonIsNotAddressedToUs(packetDropped)
attr title "packet drop: not addressed to us, count"
scalar AODVgrayhole.ntu_Blackholer.wlan[0].mac packetDropNotAddressedToUs:sum(packetBytes) 114885
attr interpolationmode none
attr source packetDropReasonIsNotAddressedToUs(packetDropped)
attr title "packet drop: not addressed to us, sum(packetBytes)"
scalar AODVgrayhole.ntu_Blackholer.wlan[0].mac linkBroken:count 17
attr interpolationmode none
attr source linkBroken
attr title "link break, count"
scalar AODVgrayhole.ntu_Blackholer.wlan[0].radio radioMode:count 3
attr interpolationmode sample-hold
attr source radioModeChanged
attr title "Radio mode, count"
scalar AODVgrayhole.ntu_Blackholer.wlan[0].radio receptionState:count 2153
attr interpolationmode sample-hold
attr source receptionStateChanged
attr title "Radio reception state, count"
scalar AODVgrayhole.ntu_Blackholer.wlan[0].radio transmissionState:count 447
attr interpolationmode sample-hold
attr source transmissionStateChanged
attr title "Radio transmission state, count"
statistic AODVgrayhole.ntu_Blackholer.wlan[0].radio minSnir:histogram
field count 0
field mean -nan
field stddev nan
field min nan
field max nan
field sum 0
field sqrsum 0
attr source minimumSnir(packetSentToUpper)
attr title "Min SNIR, histogram"
bin	-inf	0
bin	0	0
bin	1	0
statistic AODVgrayhole.ntu_Blackholer.wlan[0].radio packetErrorRate:histogram
field count 1020
field mean 0.14901960784314
field stddev 0.35628248984343
field min 0
field max 1
field sum 152
field sqrsum 152
attr source packetErrorRate(packetSentToUpper)
attr title "Packet error rate, histogram"
bin	-inf	0
bin	0	868
bin	1	152
bin	2	0
statistic AODVgrayhole.ntu_Blackholer.wlan[0].radio bitErrorRate:histogram
field count 1020
field mean 0.14901960784314
field stddev 0.35628248984343
field min 0
field max 1
field sum 152
field sqrsum 152
attr source bitErrorRate(packetSentToUpper)
attr title "Bit error rate, histogram"
bin	-inf	0
bin	0	868
bin	1	152
bin	2	0
statistic AODVgrayhole.ntu_Blackholer.wlan[0].radio symbolErrorRate:histogram
field count 1020
field mean 0.14901960784314
field stddev 0.35628248984343
field min 0
field max 1
field sum 152
field sqrsum 152
attr source symbolErrorRate(packetSentToUpper)
attr title "Symbol error rate, histogram"
bin	-inf	0
bin	0	868
bin	1	152
bin	2	0
scalar AODVgrayhole.ntu_Blackholer.ipv4.ip delayed:count 0
attr interpolationmode none
attr title "Number of packet delayed, count"
scalar AODVgrayhole.ntu_Blackholer.ipv4.ip rcvdPkt:count 122
attr interpolationmode none
attr title "Number of packet received, count"
scalar AODVgrayhole.ntu_Blackholer.ipv4.ip droppings:count 55
attr interpolationmode none
attr title "Number of drops, count"
scalar AODVgrayhole.ntu_Blackholer.ipv4.ip packetDropAddressResolutionFailed:count 0
attr interpolationmode none
attr source packetDropReasonIsAddressResolutionFailed(packetDropped)
attr title "packet drop: address resolution failed, count"
scalar AODVgrayhole.ntu_Blackholer.ipv4.ip packetDropAddressResolutionFailed:sum(packetBytes) 0
attr interpolationmode none
attr source packetDropReasonIsAddressResolutionFailed(packetDropped)
attr title "packet drop: address resolution failed, sum(packetBytes)"
scalar AODVgrayhole.ntu_Blackholer.ipv4.ip packetDropHopLimitReached:count 0
attr interpolationmode none
attr source packetDropReasonIsHopLimitReached(packetDropped)
attr title "packet drop: hop limit reached, count"
scalar AODVgrayhole.ntu_Blackholer.ipv4.ip packetDropHopLimitReached:sum(packetBytes) 0
attr interpolationmode none
attr source packetDropReasonIsHopLimitReached(packetDropped)
attr title "packet drop: hop limit reached, sum(packetBytes)"
scalar AODVgrayhole.ntu_Blackholer.ipv4.ip packetDropForwardingDisabled:count 0
attr interpolationmode none
attr source packetDropReasonIsForwardingDisabled(packetDropped)
attr title "packet drop: forwarding disabled, count"
scalar AODVgrayhole.ntu_Blackholer.ipv4.ip packetDropForwardingDisabled:sum(packetBytes) 0
attr interpolationmode none
attr source packetDropReasonIsForwardingDisabled(packetDropped)
attr title "packet drop: forwarding disabled, sum(packetBytes)"
scalar AODVgrayhole.ntu_Blackholer.ipv4.ip packetDropNoInterfaceFound:count 0
attr interpolationmode none
attr source packetDropReasonIsNoInterfaceFound(packetDropped)
attr title "packet drop: no interface found, count"
scalar AODVgrayhole.ntu_Blackholer.ipv4.ip packetDropNoInterfaceFound:sum(packetBytes) 0
attr interpolationmode none
attr source packetDropReasonIsNoInterfaceFound(packetDropped)
attr title "packet drop: no interface found, sum(packetBytes)"
scalar AODVgrayhole.ntu_Blackholer.ipv4.ip packetDropNoRouteFound:count 0
attr interpolationmode none
attr source packetDropReasonIsNoRouteFound(packetDropped)
attr title "packet drop: no route found, count"
scalar AODVgrayhole.ntu_Blackholer.ipv4.ip packetDropNoRouteFound:sum(packetBytes) 0
attr interpolationmode none
attr source packetDropReasonIsNoRouteFound(packetDropped)
attr title "packet drop: no route found, sum(packetBytes)"
scalar AODVgrayhole.ntu_Blackholer.ipv4.ip packetDropUndefined:count 0
attr interpolationmode none
attr source packetDropReasonIsUndefined(packetDropped)
attr title "packet drop: undefined, count"
scalar AODVgrayhole.ntu_Blackholer.ipv4.ip packetDropUndefined:sum(packetBytes) 0
attr interpolationmode none
attr source packetDropReasonIsUndefined(packetDropped)
attr title "packet drop: undefined, sum(packetBytes)"
scalar AODVgrayhole.ntu_Blackholer.ipv4.arp arpResolutionFailed:count 0
attr title "ARP failed resolutions, count"
scalar AODVgrayhole.ntu_Blackholer.ipv4.arp arpResolutionCompleted:count 50
attr title "ARP completed resolutions, count"
scalar AODVgrayhole.ntu_Blackholer.ipv4.arp arpResolutionInitiated:count 6
attr title "ARP initiated resolutions, count"
scalar AODVgrayhole.ntu_Blackholer.ipv4.arp arpReplySent:count 10
attr source arpReplySent
attr title "ARP replies sent, count"
scalar AODVgrayhole.ntu_Blackholer.ipv4.arp arpReplySent:sum(packetBytes) 280
attr source arpReplySent
attr title "ARP replies sent, sum(packetBytes)"
scalar AODVgrayhole.ntu_Blackholer.ipv4.arp arpRequestSent:count 8
attr source arpRequestSent
attr title "ARP request sent, count"
scalar AODVgrayhole.ntu_Blackholer.ipv4.arp arpRequestSent:sum(packetBytes) 224
attr source arpRequestSent
attr title "ARP request sent, sum(packetBytes)"
scalar AODVgrayhole.ntu_Blackholer.udp packetReceived:count 524
attr interpolationmode none
attr source packetReceived
attr title "packets received, count"
scalar AODVgrayhole.ntu_Blackholer.udp packetReceived:sum(packetBytes) 16516
attr interpolationmode none
attr source packetReceived
attr title "packets received, sum(packetBytes)"
scalar AODVgrayhole.ntu_Blackholer.udp packetSent:count 138
attr interpolationmode none
attr source packetSent
attr title "packets sent, count"
scalar AODVgrayhole.ntu_Blackholer.udp packetSent:sum(packetBytes) 4256
attr interpolationmode none
attr source packetSent
attr title "packets sent, sum(packetBytes)"
scalar AODVgrayhole.ntu_Blackholer.udp passedUpPk:count 524
attr interpolationmode none
attr source packetSentToUpper
attr title "packets passed up, count"
scalar AODVgrayhole.ntu_Blackholer.udp droppedPkWrongPort:count 0
attr interpolationmode none
attr source packetDropReasonIsNoPortFound(packetDropped)
attr title "packets dropped (wrong port), count"
scalar AODVgrayhole.ntu_Blackholer.udp droppedPkBadChecksum:count 0
attr interpolationmode none
attr source packetDropReasonIsIncorrectlyReceived(packetDropped)
attr title "packets dropped (checksum error), count"

