version 2
run IPv4ModerateFastMobility-blackhole-0-20200316-09:14:21-32144
attr configname IPv4ModerateFastMobility-blackhole
attr datetime 20200316-09:14:21
attr experiment IPv4ModerateFastMobility-blackhole
attr inifile AODVgrayhole.ini
attr iterationvars ""
attr iterationvarsf ""
attr measurement ""
attr network AODVgrayhole
attr processid 32144
attr repetition 0
attr replication #0
attr resultdir results
attr runnumber 0
attr seedset 0
param **.aodv.activeRouteTimeout 2s
param **.host[*].mobility.speed "normal(8mps, 0.01mps)"
param **.aodv.activeRouteTimeout 3s
param **.host[0..18].mobility.typename "\"MassMobility\""
param **.sender.mobility.typename "\"StationaryMobility\""
param **.receiver.mobility.typename "\"StationaryMobility\""
param **.host[*].mobility.changeInterval "normal(5s, 0.1s)"
param **.host[*].mobility.angleDelta "normal(0deg, 30deg)"
param **.host[*].mobility.speed "normal(2mps, 0.01mps)"
param *.host[*].wlan[*].radio.transmitter.communicationRange 250m
param **.wlan[*].typename "\"AckingWirelessInterface\""
param **.wlan[*].bitrate 2Mbps
param **.wlan[*].mac.headerLength 23B
param **.wlan[*].radio.typename "\"UnitDiskRadio\""
param **.wlan[*].radio.transmitter.headerLength 96b
param **.wlan[*].radio.transmitter.communicationRange 250m
param **.wlan[*].radio.transmitter.interferenceRange 0m
param **.wlan[*].radio.transmitter.detectionRange 0m
param **.wlan[*].radio.receiver.ignoreInterference true
param *.numHosts 18
param **.host[*].mobility.typename "\"StationaryMobility\""
param **.mobility.constraintAreaMinZ 0m
param **.mobility.constraintAreaMaxZ 0m
param **.mobility.constraintAreaMinX 5m
param **.mobility.constraintAreaMinY 5m
param **.mobility.constraintAreaMaxX 785m
param **.mobility.constraintAreaMaxY 490m
param *.visualizer.sceneVisualizer.descriptionFigure "\"title\""
param *.visualizer.dataLinkVisualizer.displayLinks true
param *.visualizer.networkRouteVisualizer.displayRoutes true
param *.visualizer.networkRouteVisualizer.lineShift 0
param *.visualizer.networkRouteVisualizer.packetFilter "\"UDPData*\""
param *.visualizer.physicalLinkVisualizer.packetFilter "\"UDPData*\""
param *.sender.numApps 1
param *.sender.app[0].typename "\"UdpBasicApp\""
param *.sender.app[0].destAddresses "\"receiver\""
param *.sender.app[0].destPort 1000
param *.sender.app[0].sendInterval 1s
param *.sender.app[0].startTime 0s
param *.sender.app[0].messageLength 512Byte
param *.sender.app[0].packetName "\"UDPdata\""
param *.receiver.numApps 1
param *.receiver.app[0].typename "\"UdpSink\""
param *.receiver.app[0].localPort 1000
param **.hasStatus true

vector 0 AODVgrayhole.host[0].wlan[0].radio radioMode:vector ETV
attr interpolationmode sample-hold
attr source radioModeChanged
attr title "Radio mode, vector"
vector 1 AODVgrayhole.host[1].wlan[0].radio radioMode:vector ETV
attr interpolationmode sample-hold
attr source radioModeChanged
attr title "Radio mode, vector"
vector 2 AODVgrayhole.host[2].wlan[0].radio radioMode:vector ETV
attr interpolationmode sample-hold
attr source radioModeChanged
attr title "Radio mode, vector"
vector 3 AODVgrayhole.host[3].wlan[0].radio radioMode:vector ETV
attr interpolationmode sample-hold
attr source radioModeChanged
attr title "Radio mode, vector"
vector 4 AODVgrayhole.host[4].wlan[0].radio radioMode:vector ETV
attr interpolationmode sample-hold
attr source radioModeChanged
attr title "Radio mode, vector"
vector 5 AODVgrayhole.host[5].wlan[0].radio radioMode:vector ETV
attr interpolationmode sample-hold
attr source radioModeChanged
attr title "Radio mode, vector"
vector 6 AODVgrayhole.host[6].wlan[0].radio radioMode:vector ETV
attr interpolationmode sample-hold
attr source radioModeChanged
attr title "Radio mode, vector"
vector 7 AODVgrayhole.host[7].wlan[0].radio radioMode:vector ETV
attr interpolationmode sample-hold
attr source radioModeChanged
attr title "Radio mode, vector"
vector 8 AODVgrayhole.host[8].wlan[0].radio radioMode:vector ETV
attr interpolationmode sample-hold
attr source radioModeChanged
attr title "Radio mode, vector"
vector 9 AODVgrayhole.host[9].wlan[0].radio radioMode:vector ETV
attr interpolationmode sample-hold
attr source radioModeChanged
attr title "Radio mode, vector"
vector 10 AODVgrayhole.host[10].wlan[0].radio radioMode:vector ETV
attr interpolationmode sample-hold
attr source radioModeChanged
attr title "Radio mode, vector"
vector 11 AODVgrayhole.host[11].wlan[0].radio radioMode:vector ETV
attr interpolationmode sample-hold
attr source radioModeChanged
attr title "Radio mode, vector"
vector 12 AODVgrayhole.host[12].wlan[0].radio radioMode:vector ETV
attr interpolationmode sample-hold
attr source radioModeChanged
attr title "Radio mode, vector"
vector 13 AODVgrayhole.host[13].wlan[0].radio radioMode:vector ETV
attr interpolationmode sample-hold
attr source radioModeChanged
attr title "Radio mode, vector"
vector 14 AODVgrayhole.host[14].wlan[0].radio radioMode:vector ETV
attr interpolationmode sample-hold
attr source radioModeChanged
attr title "Radio mode, vector"
vector 15 AODVgrayhole.host[15].wlan[0].radio radioMode:vector ETV
attr interpolationmode sample-hold
attr source radioModeChanged
attr title "Radio mode, vector"
vector 16 AODVgrayhole.host[16].wlan[0].radio radioMode:vector ETV
attr interpolationmode sample-hold
attr source radioModeChanged
attr title "Radio mode, vector"
vector 17 AODVgrayhole.host[17].wlan[0].radio radioMode:vector ETV
attr interpolationmode sample-hold
attr source radioModeChanged
attr title "Radio mode, vector"
vector 18 AODVgrayhole.sender.wlan[0].radio radioMode:vector ETV
attr interpolationmode sample-hold
attr source radioModeChanged
attr title "Radio mode, vector"
vector 19 AODVgrayhole.receiver.wlan[0].radio radioMode:vector ETV
attr interpolationmode sample-hold
attr source radioModeChanged
attr title "Radio mode, vector"
vector 20 AODVgrayhole.ntu_Blackholer.wlan[0].radio radioMode:vector ETV
attr interpolationmode sample-hold
attr source radioModeChanged
attr title "Radio mode, vector"
vector 21 AODVgrayhole.host[0].wlan[0].radio receptionState:vector ETV
attr interpolationmode sample-hold
attr source receptionStateChanged
attr title "Radio reception state, vector"
vector 22 AODVgrayhole.host[0].wlan[0].radio transmissionState:vector ETV
attr interpolationmode sample-hold
attr source transmissionStateChanged
attr title "Radio transmission state, vector"
vector 23 AODVgrayhole.host[1].wlan[0].radio receptionState:vector ETV
attr interpolationmode sample-hold
attr source receptionStateChanged
attr title "Radio reception state, vector"
vector 24 AODVgrayhole.host[1].wlan[0].radio transmissionState:vector ETV
attr interpolationmode sample-hold
attr source transmissionStateChanged
attr title "Radio transmission state, vector"
vector 25 AODVgrayhole.host[2].wlan[0].radio receptionState:vector ETV
attr interpolationmode sample-hold
attr source receptionStateChanged
attr title "Radio reception state, vector"
vector 26 AODVgrayhole.host[2].wlan[0].radio transmissionState:vector ETV
attr interpolationmode sample-hold
attr source transmissionStateChanged
attr title "Radio transmission state, vector"
vector 27 AODVgrayhole.host[3].wlan[0].radio receptionState:vector ETV
attr interpolationmode sample-hold
attr source receptionStateChanged
attr title "Radio reception state, vector"
vector 28 AODVgrayhole.host[3].wlan[0].radio transmissionState:vector ETV
attr interpolationmode sample-hold
attr source transmissionStateChanged
attr title "Radio transmission state, vector"
vector 29 AODVgrayhole.host[4].wlan[0].radio receptionState:vector ETV
attr interpolationmode sample-hold
attr source receptionStateChanged
attr title "Radio reception state, vector"
vector 30 AODVgrayhole.host[4].wlan[0].radio transmissionState:vector ETV
attr interpolationmode sample-hold
attr source transmissionStateChanged
attr title "Radio transmission state, vector"
vector 31 AODVgrayhole.host[5].wlan[0].radio receptionState:vector ETV
attr interpolationmode sample-hold
attr source receptionStateChanged
attr title "Radio reception state, vector"
vector 32 AODVgrayhole.host[5].wlan[0].radio transmissionState:vector ETV
attr interpolationmode sample-hold
attr source transmissionStateChanged
attr title "Radio transmission state, vector"
vector 33 AODVgrayhole.host[6].wlan[0].radio receptionState:vector ETV
attr interpolationmode sample-hold
attr source receptionStateChanged
attr title "Radio reception state, vector"
vector 34 AODVgrayhole.host[6].wlan[0].radio transmissionState:vector ETV
attr interpolationmode sample-hold
attr source transmissionStateChanged
attr title "Radio transmission state, vector"
vector 35 AODVgrayhole.host[7].wlan[0].radio receptionState:vector ETV
attr interpolationmode sample-hold
attr source receptionStateChanged
attr title "Radio reception state, vector"
vector 36 AODVgrayhole.host[7].wlan[0].radio transmissionState:vector ETV
attr interpolationmode sample-hold
attr source transmissionStateChanged
attr title "Radio transmission state, vector"
vector 37 AODVgrayhole.host[8].wlan[0].radio receptionState:vector ETV
attr interpolationmode sample-hold
attr source receptionStateChanged
attr title "Radio reception state, vector"
vector 38 AODVgrayhole.host[8].wlan[0].radio transmissionState:vector ETV
attr interpolationmode sample-hold
attr source transmissionStateChanged
attr title "Radio transmission state, vector"
vector 39 AODVgrayhole.host[9].wlan[0].radio receptionState:vector ETV
attr interpolationmode sample-hold
attr source receptionStateChanged
attr title "Radio reception state, vector"
vector 40 AODVgrayhole.host[9].wlan[0].radio transmissionState:vector ETV
attr interpolationmode sample-hold
attr source transmissionStateChanged
attr title "Radio transmission state, vector"
vector 41 AODVgrayhole.host[10].wlan[0].radio receptionState:vector ETV
attr interpolationmode sample-hold
attr source receptionStateChanged
attr title "Radio reception state, vector"
vector 42 AODVgrayhole.host[10].wlan[0].radio transmissionState:vector ETV
attr interpolationmode sample-hold
attr source transmissionStateChanged
attr title "Radio transmission state, vector"
vector 43 AODVgrayhole.host[11].wlan[0].radio receptionState:vector ETV
attr interpolationmode sample-hold
attr source receptionStateChanged
attr title "Radio reception state, vector"
vector 44 AODVgrayhole.host[11].wlan[0].radio transmissionState:vector ETV
attr interpolationmode sample-hold
attr source transmissionStateChanged
attr title "Radio transmission state, vector"
vector 45 AODVgrayhole.host[12].wlan[0].radio receptionState:vector ETV
attr interpolationmode sample-hold
attr source receptionStateChanged
attr title "Radio reception state, vector"
vector 46 AODVgrayhole.host[12].wlan[0].radio transmissionState:vector ETV
attr interpolationmode sample-hold
attr source transmissionStateChanged
attr title "Radio transmission state, vector"
vector 47 AODVgrayhole.host[13].wlan[0].radio receptionState:vector ETV
attr interpolationmode sample-hold
attr source receptionStateChanged
attr title "Radio reception state, vector"
vector 48 AODVgrayhole.host[13].wlan[0].radio transmissionState:vector ETV
attr interpolationmode sample-hold
attr source transmissionStateChanged
attr title "Radio transmission state, vector"
vector 49 AODVgrayhole.host[14].wlan[0].radio receptionState:vector ETV
attr interpolationmode sample-hold
attr source receptionStateChanged
attr title "Radio reception state, vector"
vector 50 AODVgrayhole.host[14].wlan[0].radio transmissionState:vector ETV
attr interpolationmode sample-hold
attr source transmissionStateChanged
attr title "Radio transmission state, vector"
vector 51 AODVgrayhole.host[15].wlan[0].radio receptionState:vector ETV
attr interpolationmode sample-hold
attr source receptionStateChanged
attr title "Radio reception state, vector"
vector 52 AODVgrayhole.host[15].wlan[0].radio transmissionState:vector ETV
attr interpolationmode sample-hold
attr source transmissionStateChanged
attr title "Radio transmission state, vector"
vector 53 AODVgrayhole.host[16].wlan[0].radio receptionState:vector ETV
attr interpolationmode sample-hold
attr source receptionStateChanged
attr title "Radio reception state, vector"
vector 54 AODVgrayhole.host[16].wlan[0].radio transmissionState:vector ETV
attr interpolationmode sample-hold
attr source transmissionStateChanged
attr title "Radio transmission state, vector"
vector 55 AODVgrayhole.host[17].wlan[0].radio receptionState:vector ETV
attr interpolationmode sample-hold
attr source receptionStateChanged
attr title "Radio reception state, vector"
vector 56 AODVgrayhole.host[17].wlan[0].radio transmissionState:vector ETV
attr interpolationmode sample-hold
attr source transmissionStateChanged
attr title "Radio transmission state, vector"
vector 57 AODVgrayhole.sender.wlan[0].radio receptionState:vector ETV
attr interpolationmode sample-hold
attr source receptionStateChanged
attr title "Radio reception state, vector"
vector 58 AODVgrayhole.sender.wlan[0].radio transmissionState:vector ETV
attr interpolationmode sample-hold
attr source transmissionStateChanged
attr title "Radio transmission state, vector"
vector 59 AODVgrayhole.receiver.wlan[0].radio receptionState:vector ETV
attr interpolationmode sample-hold
attr source receptionStateChanged
attr title "Radio reception state, vector"
vector 60 AODVgrayhole.receiver.wlan[0].radio transmissionState:vector ETV
attr interpolationmode sample-hold
attr source transmissionStateChanged
attr title "Radio transmission state, vector"
vector 61 AODVgrayhole.ntu_Blackholer.wlan[0].radio receptionState:vector ETV
attr interpolationmode sample-hold
attr source receptionStateChanged
attr title "Radio reception state, vector"
vector 62 AODVgrayhole.ntu_Blackholer.wlan[0].radio transmissionState:vector ETV
attr interpolationmode sample-hold
attr source transmissionStateChanged
attr title "Radio transmission state, vector"
vector 63 AODVgrayhole.sender.app[0] packetSent:vector(packetBytes) ETV
attr interpolationmode none
attr source packetSent
attr title "packets sent, vector(packetBytes)"
vector 64 AODVgrayhole.sender.udp packetSent:vector(packetBytes) ETV
attr interpolationmode none
attr source packetSent
attr title "packets sent, vector(packetBytes)"
vector 65 AODVgrayhole.sender.wlan[0].mac rcvdPkFromHl:vector(packetBytes) ETV
attr interpolationmode none
attr source packetReceivedFromUpper
attr title "packets received from higher layer, vector(packetBytes)"
vector 66 AODVgrayhole.sender.wlan[0].mac.queue packetPushed:vector(packetBytes) ETV
attr interpolationmode none
attr title "packet pushed, vector(packetBytes)"
vector 67 AODVgrayhole.sender.wlan[0].mac.queue queueLength:vector ETV
attr interpolationmode sample-hold
attr source "count(packetPushed) - count(packetPopped) - count(packetRemoved) - count(packetDropped)"
attr title "queue length, vector"
vector 68 AODVgrayhole.sender.wlan[0].mac.queue packetPopped:vector(packetBytes) ETV
attr interpolationmode none
attr title "packet popped, vector(packetBytes)"
vector 69 AODVgrayhole.sender.wlan[0].mac.queue queueingTime:vector ETV
attr interpolationmode none
attr source queueingTime(packetPopped)
attr title "queueing times, vector"
attr unit s
vector 70 AODVgrayhole.sender.wlan[0].mac sentDownPk:vector(packetBytes) ETV
attr interpolationmode none
attr source packetSentToLower
attr title "packets sent to lower layer, vector(packetBytes)"
vector 71 AODVgrayhole.host[4].wlan[0].mac rcvdPkFromLl:vector(packetBytes) ETV
attr interpolationmode none
attr source packetReceivedFromLower
attr title "packets received from lower layer, vector(packetBytes)"
vector 72 AODVgrayhole.host[4].wlan[0].mac passedUpPk:vector(packetBytes) ETV
attr interpolationmode none
attr source packetSentToUpper
attr title "packets passed to higher layer, vector(packetBytes)"
vector 73 AODVgrayhole.host[4].udp packetReceived:vector(packetBytes) ETV
attr interpolationmode none
attr source packetReceived
attr title "packets received, vector(packetBytes)"
vector 74 AODVgrayhole.host[4].udp passedUpPk:vector(count) ETV
attr interpolationmode none
attr source packetSentToUpper
attr title "packets passed up, vector(count)"
vector 75 AODVgrayhole.host[4].udp packetSent:vector(packetBytes) ETV
attr interpolationmode none
attr source packetSent
attr title "packets sent, vector(packetBytes)"
vector 76 AODVgrayhole.host[4].wlan[0].mac rcvdPkFromHl:vector(packetBytes) ETV
attr interpolationmode none
attr source packetReceivedFromUpper
attr title "packets received from higher layer, vector(packetBytes)"
vector 77 AODVgrayhole.host[4].wlan[0].mac.queue packetPushed:vector(packetBytes) ETV
attr interpolationmode none
attr title "packet pushed, vector(packetBytes)"
vector 78 AODVgrayhole.host[4].wlan[0].mac.queue queueLength:vector ETV
attr interpolationmode sample-hold
attr source "count(packetPushed) - count(packetPopped) - count(packetRemoved) - count(packetDropped)"
attr title "queue length, vector"
vector 79 AODVgrayhole.host[4].wlan[0].mac.queue packetPopped:vector(packetBytes) ETV
attr interpolationmode none
attr title "packet popped, vector(packetBytes)"
vector 80 AODVgrayhole.host[4].wlan[0].mac.queue queueingTime:vector ETV
attr interpolationmode none
attr source queueingTime(packetPopped)
attr title "queueing times, vector"
attr unit s
vector 81 AODVgrayhole.host[4].wlan[0].mac sentDownPk:vector(packetBytes) ETV
attr interpolationmode none
attr source packetSentToLower
attr title "packets sent to lower layer, vector(packetBytes)"
vector 82 AODVgrayhole.host[8].wlan[0].mac rcvdPkFromLl:vector(packetBytes) ETV
attr interpolationmode none
attr source packetReceivedFromLower
attr title "packets received from lower layer, vector(packetBytes)"
vector 83 AODVgrayhole.host[8].wlan[0].mac passedUpPk:vector(packetBytes) ETV
attr interpolationmode none
attr source packetSentToUpper
attr title "packets passed to higher layer, vector(packetBytes)"
vector 84 AODVgrayhole.host[8].udp packetReceived:vector(packetBytes) ETV
attr interpolationmode none
attr source packetReceived
attr title "packets received, vector(packetBytes)"
vector 85 AODVgrayhole.host[8].udp passedUpPk:vector(count) ETV
attr interpolationmode none
attr source packetSentToUpper
attr title "packets passed up, vector(count)"
vector 86 AODVgrayhole.host[3].wlan[0].mac rcvdPkFromLl:vector(packetBytes) ETV
attr interpolationmode none
attr source packetReceivedFromLower
attr title "packets received from lower layer, vector(packetBytes)"
vector 87 AODVgrayhole.host[3].wlan[0].mac passedUpPk:vector(packetBytes) ETV
attr interpolationmode none
attr source packetSentToUpper
attr title "packets passed to higher layer, vector(packetBytes)"
vector 88 AODVgrayhole.host[3].udp packetReceived:vector(packetBytes) ETV
attr interpolationmode none
attr source packetReceived
attr title "packets received, vector(packetBytes)"
vector 89 AODVgrayhole.host[3].udp passedUpPk:vector(count) ETV
attr interpolationmode none
attr source packetSentToUpper
attr title "packets passed up, vector(count)"
vector 90 AODVgrayhole.host[5].wlan[0].mac rcvdPkFromLl:vector(packetBytes) ETV
attr interpolationmode none
attr source packetReceivedFromLower
attr title "packets received from lower layer, vector(packetBytes)"
vector 91 AODVgrayhole.host[5].wlan[0].mac passedUpPk:vector(packetBytes) ETV
attr interpolationmode none
attr source packetSentToUpper
attr title "packets passed to higher layer, vector(packetBytes)"
vector 92 AODVgrayhole.host[5].udp packetReceived:vector(packetBytes) ETV
attr interpolationmode none
attr source packetReceived
attr title "packets received, vector(packetBytes)"
vector 93 AODVgrayhole.host[5].udp passedUpPk:vector(count) ETV
attr interpolationmode none
attr source packetSentToUpper
attr title "packets passed up, vector(count)"
vector 94 AODVgrayhole.host[7].wlan[0].mac rcvdPkFromLl:vector(packetBytes) ETV
attr interpolationmode none
attr source packetReceivedFromLower
attr title "packets received from lower layer, vector(packetBytes)"
vector 95 AODVgrayhole.host[7].wlan[0].mac passedUpPk:vector(packetBytes) ETV
attr interpolationmode none
attr source packetSentToUpper
attr title "packets passed to higher layer, vector(packetBytes)"
vector 96 AODVgrayhole.host[7].udp packetReceived:vector(packetBytes) ETV
attr interpolationmode none
attr source packetReceived
attr title "packets received, vector(packetBytes)"
vector 97 AODVgrayhole.host[7].udp passedUpPk:vector(count) ETV
attr interpolationmode none
attr source packetSentToUpper
attr title "packets passed up, vector(count)"
vector 98 AODVgrayhole.host[14].wlan[0].mac rcvdPkFromLl:vector(packetBytes) ETV
attr interpolationmode none
attr source packetReceivedFromLower
attr title "packets received from lower layer, vector(packetBytes)"
vector 99 AODVgrayhole.host[14].wlan[0].mac passedUpPk:vector(packetBytes) ETV
attr interpolationmode none
attr source packetSentToUpper
attr title "packets passed to higher layer, vector(packetBytes)"
vector 100 AODVgrayhole.host[14].udp packetReceived:vector(packetBytes) ETV
attr interpolationmode none
attr source packetReceived
attr title "packets received, vector(packetBytes)"
vector 101 AODVgrayhole.host[14].udp passedUpPk:vector(count) ETV
attr interpolationmode none
attr source packetSentToUpper
attr title "packets passed up, vector(count)"
vector 102 AODVgrayhole.host[16].wlan[0].mac rcvdPkFromLl:vector(packetBytes) ETV
attr interpolationmode none
attr source packetReceivedFromLower
attr title "packets received from lower layer, vector(packetBytes)"
vector 103 AODVgrayhole.host[16].wlan[0].mac passedUpPk:vector(packetBytes) ETV
attr interpolationmode none
attr source packetSentToUpper
attr title "packets passed to higher layer, vector(packetBytes)"
vector 104 AODVgrayhole.host[16].udp packetReceived:vector(packetBytes) ETV
attr interpolationmode none
attr source packetReceived
attr title "packets received, vector(packetBytes)"
vector 105 AODVgrayhole.host[16].udp passedUpPk:vector(count) ETV
attr interpolationmode none
attr source packetSentToUpper
attr title "packets passed up, vector(count)"
vector 106 AODVgrayhole.host[2].wlan[0].mac rcvdPkFromLl:vector(packetBytes) ETV
attr interpolationmode none
attr source packetReceivedFromLower
attr title "packets received from lower layer, vector(packetBytes)"
vector 107 AODVgrayhole.host[2].wlan[0].mac passedUpPk:vector(packetBytes) ETV
attr interpolationmode none
attr source packetSentToUpper
attr title "packets passed to higher layer, vector(packetBytes)"
vector 108 AODVgrayhole.host[2].udp packetReceived:vector(packetBytes) ETV
attr interpolationmode none
attr source packetReceived
attr title "packets received, vector(packetBytes)"
vector 109 AODVgrayhole.host[2].udp passedUpPk:vector(count) ETV
attr interpolationmode none
attr source packetSentToUpper
attr title "packets passed up, vector(count)"
vector 110 AODVgrayhole.host[9].wlan[0].mac rcvdPkFromLl:vector(packetBytes) ETV
attr interpolationmode none
attr source packetReceivedFromLower
attr title "packets received from lower layer, vector(packetBytes)"
vector 111 AODVgrayhole.host[9].wlan[0].mac passedUpPk:vector(packetBytes) ETV
attr interpolationmode none
attr source packetSentToUpper
attr title "packets passed to higher layer, vector(packetBytes)"
vector 112 AODVgrayhole.host[9].udp packetReceived:vector(packetBytes) ETV
attr interpolationmode none
attr source packetReceived
attr title "packets received, vector(packetBytes)"
vector 113 AODVgrayhole.host[9].udp passedUpPk:vector(count) ETV
attr interpolationmode none
attr source packetSentToUpper
attr title "packets passed up, vector(count)"
vector 114 AODVgrayhole.host[11].wlan[0].mac rcvdPkFromLl:vector(packetBytes) ETV
attr interpolationmode none
attr source packetReceivedFromLower
attr title "packets received from lower layer, vector(packetBytes)"
vector 115 AODVgrayhole.host[11].wlan[0].mac passedUpPk:vector(packetBytes) ETV
attr interpolationmode none
attr source packetSentToUpper
attr title "packets passed to higher layer, vector(packetBytes)"
vector 116 AODVgrayhole.host[11].udp packetReceived:vector(packetBytes) ETV
attr interpolationmode none
attr source packetReceived
attr title "packets received, vector(packetBytes)"
vector 117 AODVgrayhole.host[11].udp passedUpPk:vector(count) ETV
attr interpolationmode none
attr source packetSentToUpper
attr title "packets passed up, vector(count)"
vector 118 AODVgrayhole.sender.wlan[0].mac rcvdPkFromLl:vector(packetBytes) ETV
attr interpolationmode none
attr source packetReceivedFromLower
attr title "packets received from lower layer, vector(packetBytes)"
vector 119 AODVgrayhole.sender.wlan[0].mac passedUpPk:vector(packetBytes) ETV
attr interpolationmode none
attr source packetSentToUpper
attr title "packets passed to higher layer, vector(packetBytes)"
vector 120 AODVgrayhole.sender.udp packetReceived:vector(packetBytes) ETV
attr interpolationmode none
attr source packetReceived
attr title "packets received, vector(packetBytes)"
vector 121 AODVgrayhole.sender.udp passedUpPk:vector(count) ETV
attr interpolationmode none
attr source packetSentToUpper
attr title "packets passed up, vector(count)"
vector 122 AODVgrayhole.host[12].wlan[0].mac rcvdPkFromLl:vector(packetBytes) ETV
attr interpolationmode none
attr source packetReceivedFromLower
attr title "packets received from lower layer, vector(packetBytes)"
vector 123 AODVgrayhole.host[12].wlan[0].mac passedUpPk:vector(packetBytes) ETV
attr interpolationmode none
attr source packetSentToUpper
attr title "packets passed to higher layer, vector(packetBytes)"
vector 124 AODVgrayhole.host[12].udp packetReceived:vector(packetBytes) ETV
attr interpolationmode none
attr source packetReceived
attr title "packets received, vector(packetBytes)"
vector 125 AODVgrayhole.host[12].udp passedUpPk:vector(count) ETV
attr interpolationmode none
attr source packetSentToUpper
attr title "packets passed up, vector(count)"
vector 126 AODVgrayhole.host[1].wlan[0].mac rcvdPkFromLl:vector(packetBytes) ETV
attr interpolationmode none
attr source packetReceivedFromLower
attr title "packets received from lower layer, vector(packetBytes)"
vector 127 AODVgrayhole.host[1].wlan[0].mac passedUpPk:vector(packetBytes) ETV
attr interpolationmode none
attr source packetSentToUpper
attr title "packets passed to higher layer, vector(packetBytes)"
vector 128 AODVgrayhole.host[1].udp packetReceived:vector(packetBytes) ETV
attr interpolationmode none
attr source packetReceived
attr title "packets received, vector(packetBytes)"
vector 129 AODVgrayhole.host[1].udp passedUpPk:vector(count) ETV
attr interpolationmode none
attr source packetSentToUpper
attr title "packets passed up, vector(count)"
vector 130 AODVgrayhole.ntu_Blackholer.wlan[0].mac rcvdPkFromLl:vector(packetBytes) ETV
attr interpolationmode none
attr source packetReceivedFromLower
attr title "packets received from lower layer, vector(packetBytes)"
vector 131 AODVgrayhole.ntu_Blackholer.wlan[0].mac passedUpPk:vector(packetBytes) ETV
attr interpolationmode none
attr source packetSentToUpper
attr title "packets passed to higher layer, vector(packetBytes)"
vector 132 AODVgrayhole.ntu_Blackholer.udp packetReceived:vector(packetBytes) ETV
attr interpolationmode none
attr source packetReceived
attr title "packets received, vector(packetBytes)"
vector 133 AODVgrayhole.ntu_Blackholer.udp passedUpPk:vector(count) ETV
attr interpolationmode none
attr source packetSentToUpper
attr title "packets passed up, vector(count)"
vector 134 AODVgrayhole.ntu_Blackholer.udp packetSent:vector(packetBytes) ETV
attr interpolationmode none
attr source packetSent
attr title "packets sent, vector(packetBytes)"
vector 135 AODVgrayhole.ntu_Blackholer.ipv4.arp arpRequestSent:vector(packetBytes) ETV
attr source arpRequestSent
attr title "ARP request sent, vector(packetBytes)"
vector 136 AODVgrayhole.ntu_Blackholer.wlan[0].mac rcvdPkFromHl:vector(packetBytes) ETV
attr interpolationmode none
attr source packetReceivedFromUpper
attr title "packets received from higher layer, vector(packetBytes)"
vector 137 AODVgrayhole.ntu_Blackholer.wlan[0].mac.queue packetPushed:vector(packetBytes) ETV
attr interpolationmode none
attr title "packet pushed, vector(packetBytes)"
vector 138 AODVgrayhole.ntu_Blackholer.wlan[0].mac.queue queueLength:vector ETV
attr interpolationmode sample-hold
attr source "count(packetPushed) - count(packetPopped) - count(packetRemoved) - count(packetDropped)"
attr title "queue length, vector"
vector 139 AODVgrayhole.ntu_Blackholer.wlan[0].mac.queue packetPopped:vector(packetBytes) ETV
attr interpolationmode none
attr title "packet popped, vector(packetBytes)"
vector 140 AODVgrayhole.ntu_Blackholer.wlan[0].mac.queue queueingTime:vector ETV
attr interpolationmode none
attr source queueingTime(packetPopped)
attr title "queueing times, vector"
attr unit s
vector 141 AODVgrayhole.ntu_Blackholer.wlan[0].mac sentDownPk:vector(packetBytes) ETV
attr interpolationmode none
attr source packetSentToLower
attr title "packets sent to lower layer, vector(packetBytes)"
vector 142 AODVgrayhole.host[14].udp packetSent:vector(packetBytes) ETV
attr interpolationmode none
attr source packetSent
attr title "packets sent, vector(packetBytes)"
vector 143 AODVgrayhole.host[14].wlan[0].mac rcvdPkFromHl:vector(packetBytes) ETV
attr interpolationmode none
attr source packetReceivedFromUpper
attr title "packets received from higher layer, vector(packetBytes)"
vector 144 AODVgrayhole.host[14].wlan[0].mac.queue packetPushed:vector(packetBytes) ETV
attr interpolationmode none
attr title "packet pushed, vector(packetBytes)"
vector 145 AODVgrayhole.host[14].wlan[0].mac.queue queueLength:vector ETV
attr interpolationmode sample-hold
attr source "count(packetPushed) - count(packetPopped) - count(packetRemoved) - count(packetDropped)"
attr title "queue length, vector"
vector 146 AODVgrayhole.host[14].wlan[0].mac.queue packetPopped:vector(packetBytes) ETV
attr interpolationmode none
attr title "packet popped, vector(packetBytes)"
vector 147 AODVgrayhole.host[14].wlan[0].mac.queue queueingTime:vector ETV
attr interpolationmode none
attr source queueingTime(packetPopped)
attr title "queueing times, vector"
attr unit s
vector 148 AODVgrayhole.host[14].wlan[0].mac sentDownPk:vector(packetBytes) ETV
attr interpolationmode none
attr source packetSentToLower
attr title "packets sent to lower layer, vector(packetBytes)"
vector 149 AODVgrayhole.host[13].wlan[0].mac rcvdPkFromLl:vector(packetBytes) ETV
attr interpolationmode none
attr source packetReceivedFromLower
attr title "packets received from lower layer, vector(packetBytes)"
vector 150 AODVgrayhole.host[13].wlan[0].mac passedUpPk:vector(packetBytes) ETV
attr interpolationmode none
attr source packetSentToUpper
attr title "packets passed to higher layer, vector(packetBytes)"
vector 151 AODVgrayhole.host[15].wlan[0].mac rcvdPkFromLl:vector(packetBytes) ETV
attr interpolationmode none
attr source packetReceivedFromLower
attr title "packets received from lower layer, vector(packetBytes)"
vector 152 AODVgrayhole.host[15].wlan[0].mac passedUpPk:vector(packetBytes) ETV
attr interpolationmode none
attr source packetSentToUpper
attr title "packets passed to higher layer, vector(packetBytes)"
vector 153 AODVgrayhole.host[4].ipv4.arp arpReplySent:vector(packetBytes) ETV
attr source arpReplySent
attr title "ARP replies sent, vector(packetBytes)"
vector 154 AODVgrayhole.host[8].udp packetSent:vector(packetBytes) ETV
attr interpolationmode none
attr source packetSent
attr title "packets sent, vector(packetBytes)"
vector 155 AODVgrayhole.host[8].wlan[0].mac rcvdPkFromHl:vector(packetBytes) ETV
attr interpolationmode none
attr source packetReceivedFromUpper
attr title "packets received from higher layer, vector(packetBytes)"
vector 156 AODVgrayhole.host[8].wlan[0].mac.queue packetPushed:vector(packetBytes) ETV
attr interpolationmode none
attr title "packet pushed, vector(packetBytes)"
vector 157 AODVgrayhole.host[8].wlan[0].mac.queue queueLength:vector ETV
attr interpolationmode sample-hold
attr source "count(packetPushed) - count(packetPopped) - count(packetRemoved) - count(packetDropped)"
attr title "queue length, vector"
vector 158 AODVgrayhole.host[8].wlan[0].mac.queue packetPopped:vector(packetBytes) ETV
attr interpolationmode none
attr title "packet popped, vector(packetBytes)"
vector 159 AODVgrayhole.host[8].wlan[0].mac.queue queueingTime:vector ETV
attr interpolationmode none
attr source queueingTime(packetPopped)
attr title "queueing times, vector"
attr unit s
vector 160 AODVgrayhole.host[8].wlan[0].mac sentDownPk:vector(packetBytes) ETV
attr interpolationmode none
attr source packetSentToLower
attr title "packets sent to lower layer, vector(packetBytes)"
vector 161 AODVgrayhole.host[5].udp packetSent:vector(packetBytes) ETV
attr interpolationmode none
attr source packetSent
attr title "packets sent, vector(packetBytes)"
vector 162 AODVgrayhole.host[5].wlan[0].mac rcvdPkFromHl:vector(packetBytes) ETV
attr interpolationmode none
attr source packetReceivedFromUpper
attr title "packets received from higher layer, vector(packetBytes)"
vector 163 AODVgrayhole.host[5].wlan[0].mac.queue packetPushed:vector(packetBytes) ETV
attr interpolationmode none
attr title "packet pushed, vector(packetBytes)"
vector 164 AODVgrayhole.host[5].wlan[0].mac.queue queueLength:vector ETV
attr interpolationmode sample-hold
attr source "count(packetPushed) - count(packetPopped) - count(packetRemoved) - count(packetDropped)"
attr title "queue length, vector"
vector 165 AODVgrayhole.host[5].wlan[0].mac.queue packetPopped:vector(packetBytes) ETV
attr interpolationmode none
attr title "packet popped, vector(packetBytes)"
vector 166 AODVgrayhole.host[5].wlan[0].mac.queue queueingTime:vector ETV
attr interpolationmode none
attr source queueingTime(packetPopped)
attr title "queueing times, vector"
attr unit s
vector 167 AODVgrayhole.host[5].wlan[0].mac sentDownPk:vector(packetBytes) ETV
attr interpolationmode none
attr source packetSentToLower
attr title "packets sent to lower layer, vector(packetBytes)"
vector 168 AODVgrayhole.host[3].wlan[0].mac packetDropNotAddressedToUs:vector(packetBytes) ETV
attr interpolationmode none
attr source packetDropReasonIsNotAddressedToUs(packetDropped)
attr title "packet drop: not addressed to us, vector(packetBytes)"
vector 169 AODVgrayhole.host[14].wlan[0].mac packetDropNotAddressedToUs:vector(packetBytes) ETV
attr interpolationmode none
attr source packetDropReasonIsNotAddressedToUs(packetDropped)
attr title "packet drop: not addressed to us, vector(packetBytes)"
vector 170 AODVgrayhole.host[2].wlan[0].mac packetDropNotAddressedToUs:vector(packetBytes) ETV
attr interpolationmode none
attr source packetDropReasonIsNotAddressedToUs(packetDropped)
attr title "packet drop: not addressed to us, vector(packetBytes)"
vector 171 AODVgrayhole.host[9].wlan[0].mac packetDropNotAddressedToUs:vector(packetBytes) ETV
attr interpolationmode none
attr source packetDropReasonIsNotAddressedToUs(packetDropped)
attr title "packet drop: not addressed to us, vector(packetBytes)"
vector 172 AODVgrayhole.host[11].wlan[0].mac packetDropNotAddressedToUs:vector(packetBytes) ETV
attr interpolationmode none
attr source packetDropReasonIsNotAddressedToUs(packetDropped)
attr title "packet drop: not addressed to us, vector(packetBytes)"
vector 173 AODVgrayhole.sender.wlan[0].mac packetDropNotAddressedToUs:vector(packetBytes) ETV
attr interpolationmode none
attr source packetDropReasonIsNotAddressedToUs(packetDropped)
attr title "packet drop: not addressed to us, vector(packetBytes)"
vector 174 AODVgrayhole.host[12].wlan[0].mac packetDropNotAddressedToUs:vector(packetBytes) ETV
attr interpolationmode none
attr source packetDropReasonIsNotAddressedToUs(packetDropped)
attr title "packet drop: not addressed to us, vector(packetBytes)"
vector 175 AODVgrayhole.host[1].wlan[0].mac packetDropNotAddressedToUs:vector(packetBytes) ETV
attr interpolationmode none
attr source packetDropReasonIsNotAddressedToUs(packetDropped)
attr title "packet drop: not addressed to us, vector(packetBytes)"
vector 176 AODVgrayhole.host[12].udp packetSent:vector(packetBytes) ETV
attr interpolationmode none
attr source packetSent
attr title "packets sent, vector(packetBytes)"
vector 177 AODVgrayhole.host[12].wlan[0].mac rcvdPkFromHl:vector(packetBytes) ETV
attr interpolationmode none
attr source packetReceivedFromUpper
attr title "packets received from higher layer, vector(packetBytes)"
vector 178 AODVgrayhole.host[12].wlan[0].mac.queue packetPushed:vector(packetBytes) ETV
attr interpolationmode none
attr title "packet pushed, vector(packetBytes)"
vector 179 AODVgrayhole.host[12].wlan[0].mac.queue queueLength:vector ETV
attr interpolationmode sample-hold
attr source "count(packetPushed) - count(packetPopped) - count(packetRemoved) - count(packetDropped)"
attr title "queue length, vector"
vector 180 AODVgrayhole.host[12].wlan[0].mac.queue packetPopped:vector(packetBytes) ETV
attr interpolationmode none
attr title "packet popped, vector(packetBytes)"
vector 181 AODVgrayhole.host[12].wlan[0].mac.queue queueingTime:vector ETV
attr interpolationmode none
attr source queueingTime(packetPopped)
attr title "queueing times, vector"
attr unit s
vector 182 AODVgrayhole.host[12].wlan[0].mac sentDownPk:vector(packetBytes) ETV
attr interpolationmode none
attr source packetSentToLower
attr title "packets sent to lower layer, vector(packetBytes)"
vector 183 AODVgrayhole.host[13].wlan[0].mac packetDropNotAddressedToUs:vector(packetBytes) ETV
attr interpolationmode none
attr source packetDropReasonIsNotAddressedToUs(packetDropped)
attr title "packet drop: not addressed to us, vector(packetBytes)"
vector 184 AODVgrayhole.host[15].wlan[0].mac packetDropNotAddressedToUs:vector(packetBytes) ETV
attr interpolationmode none
attr source packetDropReasonIsNotAddressedToUs(packetDropped)
attr title "packet drop: not addressed to us, vector(packetBytes)"
vector 185 AODVgrayhole.host[3].udp packetSent:vector(packetBytes) ETV
attr interpolationmode none
attr source packetSent
attr title "packets sent, vector(packetBytes)"
vector 186 AODVgrayhole.host[3].wlan[0].mac rcvdPkFromHl:vector(packetBytes) ETV
attr interpolationmode none
attr source packetReceivedFromUpper
attr title "packets received from higher layer, vector(packetBytes)"
vector 187 AODVgrayhole.host[3].wlan[0].mac.queue packetPushed:vector(packetBytes) ETV
attr interpolationmode none
attr title "packet pushed, vector(packetBytes)"
vector 188 AODVgrayhole.host[3].wlan[0].mac.queue queueLength:vector ETV
attr interpolationmode sample-hold
attr source "count(packetPushed) - count(packetPopped) - count(packetRemoved) - count(packetDropped)"
attr title "queue length, vector"
vector 189 AODVgrayhole.host[3].wlan[0].mac.queue packetPopped:vector(packetBytes) ETV
attr interpolationmode none
attr title "packet popped, vector(packetBytes)"
vector 190 AODVgrayhole.host[3].wlan[0].mac.queue queueingTime:vector ETV
attr interpolationmode none
attr source queueingTime(packetPopped)
attr title "queueing times, vector"
attr unit s
vector 191 AODVgrayhole.host[3].wlan[0].mac sentDownPk:vector(packetBytes) ETV
attr interpolationmode none
attr source packetSentToLower
attr title "packets sent to lower layer, vector(packetBytes)"
vector 192 AODVgrayhole.host[16].udp packetSent:vector(packetBytes) ETV
attr interpolationmode none
attr source packetSent
attr title "packets sent, vector(packetBytes)"
vector 193 AODVgrayhole.host[16].wlan[0].mac rcvdPkFromHl:vector(packetBytes) ETV
attr interpolationmode none
attr source packetReceivedFromUpper
attr title "packets received from higher layer, vector(packetBytes)"
vector 194 AODVgrayhole.host[16].wlan[0].mac.queue packetPushed:vector(packetBytes) ETV
attr interpolationmode none
attr title "packet pushed, vector(packetBytes)"
vector 195 AODVgrayhole.host[16].wlan[0].mac.queue queueLength:vector ETV
attr interpolationmode sample-hold
attr source "count(packetPushed) - count(packetPopped) - count(packetRemoved) - count(packetDropped)"
attr title "queue length, vector"
vector 196 AODVgrayhole.host[16].wlan[0].mac.queue packetPopped:vector(packetBytes) ETV
attr interpolationmode none
attr title "packet popped, vector(packetBytes)"
vector 197 AODVgrayhole.host[16].wlan[0].mac.queue queueingTime:vector ETV
attr interpolationmode none
attr source queueingTime(packetPopped)
attr title "queueing times, vector"
attr unit s
vector 198 AODVgrayhole.host[16].wlan[0].mac sentDownPk:vector(packetBytes) ETV
attr interpolationmode none
attr source packetSentToLower
attr title "packets sent to lower layer, vector(packetBytes)"
vector 199 AODVgrayhole.host[13].udp packetReceived:vector(packetBytes) ETV
attr interpolationmode none
attr source packetReceived
attr title "packets received, vector(packetBytes)"
vector 200 AODVgrayhole.host[13].udp passedUpPk:vector(count) ETV
attr interpolationmode none
attr source packetSentToUpper
attr title "packets passed up, vector(count)"
vector 201 AODVgrayhole.host[7].udp packetSent:vector(packetBytes) ETV
attr interpolationmode none
attr source packetSent
attr title "packets sent, vector(packetBytes)"
vector 202 AODVgrayhole.host[7].wlan[0].mac rcvdPkFromHl:vector(packetBytes) ETV
attr interpolationmode none
attr source packetReceivedFromUpper
attr title "packets received from higher layer, vector(packetBytes)"
vector 203 AODVgrayhole.host[7].wlan[0].mac.queue packetPushed:vector(packetBytes) ETV
attr interpolationmode none
attr title "packet pushed, vector(packetBytes)"
vector 204 AODVgrayhole.host[7].wlan[0].mac.queue queueLength:vector ETV
attr interpolationmode sample-hold
attr source "count(packetPushed) - count(packetPopped) - count(packetRemoved) - count(packetDropped)"
attr title "queue length, vector"
vector 205 AODVgrayhole.host[7].wlan[0].mac.queue packetPopped:vector(packetBytes) ETV
attr interpolationmode none
attr title "packet popped, vector(packetBytes)"
vector 206 AODVgrayhole.host[7].wlan[0].mac.queue queueingTime:vector ETV
attr interpolationmode none
attr source queueingTime(packetPopped)
attr title "queueing times, vector"
attr unit s
vector 207 AODVgrayhole.host[7].wlan[0].mac sentDownPk:vector(packetBytes) ETV
attr interpolationmode none
attr source packetSentToLower
attr title "packets sent to lower layer, vector(packetBytes)"
vector 208 AODVgrayhole.host[11].udp packetSent:vector(packetBytes) ETV
attr interpolationmode none
attr source packetSent
attr title "packets sent, vector(packetBytes)"
vector 209 AODVgrayhole.host[11].wlan[0].mac rcvdPkFromHl:vector(packetBytes) ETV
attr interpolationmode none
attr source packetReceivedFromUpper
attr title "packets received from higher layer, vector(packetBytes)"
vector 210 AODVgrayhole.host[11].wlan[0].mac.queue packetPushed:vector(packetBytes) ETV
attr interpolationmode none
attr title "packet pushed, vector(packetBytes)"
vector 211 AODVgrayhole.host[11].wlan[0].mac.queue queueLength:vector ETV
attr interpolationmode sample-hold
attr source "count(packetPushed) - count(packetPopped) - count(packetRemoved) - count(packetDropped)"
attr title "queue length, vector"
vector 212 AODVgrayhole.host[11].wlan[0].mac.queue packetPopped:vector(packetBytes) ETV
attr interpolationmode none
attr title "packet popped, vector(packetBytes)"
vector 213 AODVgrayhole.host[11].wlan[0].mac.queue queueingTime:vector ETV
attr interpolationmode none
attr source queueingTime(packetPopped)
attr title "queueing times, vector"
attr unit s
vector 214 AODVgrayhole.host[11].wlan[0].mac sentDownPk:vector(packetBytes) ETV
attr interpolationmode none
attr source packetSentToLower
attr title "packets sent to lower layer, vector(packetBytes)"
vector 215 AODVgrayhole.host[2].udp packetSent:vector(packetBytes) ETV
attr interpolationmode none
attr source packetSent
attr title "packets sent, vector(packetBytes)"
vector 216 AODVgrayhole.host[2].wlan[0].mac rcvdPkFromHl:vector(packetBytes) ETV
attr interpolationmode none
attr source packetReceivedFromUpper
attr title "packets received from higher layer, vector(packetBytes)"
vector 217 AODVgrayhole.host[2].wlan[0].mac.queue packetPushed:vector(packetBytes) ETV
attr interpolationmode none
attr title "packet pushed, vector(packetBytes)"
vector 218 AODVgrayhole.host[2].wlan[0].mac.queue queueLength:vector ETV
attr interpolationmode sample-hold
attr source "count(packetPushed) - count(packetPopped) - count(packetRemoved) - count(packetDropped)"
attr title "queue length, vector"
vector 219 AODVgrayhole.host[2].wlan[0].mac.queue packetPopped:vector(packetBytes) ETV
attr interpolationmode none
attr title "packet popped, vector(packetBytes)"
vector 220 AODVgrayhole.host[2].wlan[0].mac.queue queueingTime:vector ETV
attr interpolationmode none
attr source queueingTime(packetPopped)
attr title "queueing times, vector"
attr unit s
vector 221 AODVgrayhole.host[2].wlan[0].mac sentDownPk:vector(packetBytes) ETV
attr interpolationmode none
attr source packetSentToLower
attr title "packets sent to lower layer, vector(packetBytes)"
vector 222 AODVgrayhole.host[1].udp packetSent:vector(packetBytes) ETV
attr interpolationmode none
attr source packetSent
attr title "packets sent, vector(packetBytes)"
vector 223 AODVgrayhole.host[1].wlan[0].mac rcvdPkFromHl:vector(packetBytes) ETV
attr interpolationmode none
attr source packetReceivedFromUpper
attr title "packets received from higher layer, vector(packetBytes)"
vector 224 AODVgrayhole.host[1].wlan[0].mac.queue packetPushed:vector(packetBytes) ETV
attr interpolationmode none
attr title "packet pushed, vector(packetBytes)"
vector 225 AODVgrayhole.host[1].wlan[0].mac.queue queueLength:vector ETV
attr interpolationmode sample-hold
attr source "count(packetPushed) - count(packetPopped) - count(packetRemoved) - count(packetDropped)"
attr title "queue length, vector"
vector 226 AODVgrayhole.host[1].wlan[0].mac.queue packetPopped:vector(packetBytes) ETV
attr interpolationmode none
attr title "packet popped, vector(packetBytes)"
vector 227 AODVgrayhole.host[1].wlan[0].mac.queue queueingTime:vector ETV
attr interpolationmode none
attr source queueingTime(packetPopped)
attr title "queueing times, vector"
attr unit s
vector 228 AODVgrayhole.host[1].wlan[0].mac sentDownPk:vector(packetBytes) ETV
attr interpolationmode none
attr source packetSentToLower
attr title "packets sent to lower layer, vector(packetBytes)"
vector 229 AODVgrayhole.host[13].udp packetSent:vector(packetBytes) ETV
attr interpolationmode none
attr source packetSent
attr title "packets sent, vector(packetBytes)"
vector 230 AODVgrayhole.host[13].wlan[0].mac rcvdPkFromHl:vector(packetBytes) ETV
attr interpolationmode none
attr source packetReceivedFromUpper
attr title "packets received from higher layer, vector(packetBytes)"
vector 231 AODVgrayhole.host[13].wlan[0].mac.queue packetPushed:vector(packetBytes) ETV
attr interpolationmode none
attr title "packet pushed, vector(packetBytes)"
vector 232 AODVgrayhole.host[13].wlan[0].mac.queue queueLength:vector ETV
attr interpolationmode sample-hold
attr source "count(packetPushed) - count(packetPopped) - count(packetRemoved) - count(packetDropped)"
attr title "queue length, vector"
vector 233 AODVgrayhole.host[13].wlan[0].mac.queue packetPopped:vector(packetBytes) ETV
attr interpolationmode none
attr title "packet popped, vector(packetBytes)"
vector 234 AODVgrayhole.host[13].wlan[0].mac.queue queueingTime:vector ETV
attr interpolationmode none
attr source queueingTime(packetPopped)
attr title "queueing times, vector"
attr unit s
vector 235 AODVgrayhole.host[13].wlan[0].mac sentDownPk:vector(packetBytes) ETV
attr interpolationmode none
attr source packetSentToLower
attr title "packets sent to lower layer, vector(packetBytes)"
vector 236 AODVgrayhole.host[0].wlan[0].mac rcvdPkFromLl:vector(packetBytes) ETV
attr interpolationmode none
attr source packetReceivedFromLower
attr title "packets received from lower layer, vector(packetBytes)"
vector 237 AODVgrayhole.host[0].wlan[0].mac passedUpPk:vector(packetBytes) ETV
attr interpolationmode none
attr source packetSentToUpper
attr title "packets passed to higher layer, vector(packetBytes)"
vector 238 AODVgrayhole.host[0].udp packetReceived:vector(packetBytes) ETV
attr interpolationmode none
attr source packetReceived
attr title "packets received, vector(packetBytes)"
vector 239 AODVgrayhole.host[0].udp passedUpPk:vector(count) ETV
attr interpolationmode none
attr source packetSentToUpper
attr title "packets passed up, vector(count)"
vector 240 AODVgrayhole.host[15].udp packetReceived:vector(packetBytes) ETV
attr interpolationmode none
attr source packetReceived
attr title "packets received, vector(packetBytes)"
vector 241 AODVgrayhole.host[15].udp passedUpPk:vector(count) ETV
attr interpolationmode none
attr source packetSentToUpper
attr title "packets passed up, vector(count)"
vector 242 AODVgrayhole.host[6].wlan[0].mac rcvdPkFromLl:vector(packetBytes) ETV
attr interpolationmode none
attr source packetReceivedFromLower
attr title "packets received from lower layer, vector(packetBytes)"
vector 243 AODVgrayhole.host[6].wlan[0].mac passedUpPk:vector(packetBytes) ETV
attr interpolationmode none
attr source packetSentToUpper
attr title "packets passed to higher layer, vector(packetBytes)"
vector 244 AODVgrayhole.host[6].udp packetReceived:vector(packetBytes) ETV
attr interpolationmode none
attr source packetReceived
attr title "packets received, vector(packetBytes)"
vector 245 AODVgrayhole.host[6].udp passedUpPk:vector(count) ETV
attr interpolationmode none
attr source packetSentToUpper
attr title "packets passed up, vector(count)"
vector 246 AODVgrayhole.host[10].wlan[0].mac rcvdPkFromLl:vector(packetBytes) ETV
attr interpolationmode none
attr source packetReceivedFromLower
attr title "packets received from lower layer, vector(packetBytes)"
vector 247 AODVgrayhole.host[10].wlan[0].mac passedUpPk:vector(packetBytes) ETV
attr interpolationmode none
attr source packetSentToUpper
attr title "packets passed to higher layer, vector(packetBytes)"
vector 248 AODVgrayhole.host[10].udp packetReceived:vector(packetBytes) ETV
attr interpolationmode none
attr source packetReceived
attr title "packets received, vector(packetBytes)"
vector 249 AODVgrayhole.host[10].udp passedUpPk:vector(count) ETV
attr interpolationmode none
attr source packetSentToUpper
attr title "packets passed up, vector(count)"
vector 250 AODVgrayhole.host[17].wlan[0].mac rcvdPkFromLl:vector(packetBytes) ETV
attr interpolationmode none
attr source packetReceivedFromLower
attr title "packets received from lower layer, vector(packetBytes)"
vector 251 AODVgrayhole.host[17].wlan[0].mac passedUpPk:vector(packetBytes) ETV
attr interpolationmode none
attr source packetSentToUpper
attr title "packets passed to higher layer, vector(packetBytes)"
vector 252 AODVgrayhole.host[17].udp packetReceived:vector(packetBytes) ETV
attr interpolationmode none
attr source packetReceived
attr title "packets received, vector(packetBytes)"
vector 253 AODVgrayhole.host[17].udp passedUpPk:vector(count) ETV
attr interpolationmode none
attr source packetSentToUpper
attr title "packets passed up, vector(count)"
vector 254 AODVgrayhole.host[9].udp packetSent:vector(packetBytes) ETV
attr interpolationmode none
attr source packetSent
attr title "packets sent, vector(packetBytes)"
vector 255 AODVgrayhole.host[9].wlan[0].mac rcvdPkFromHl:vector(packetBytes) ETV
attr interpolationmode none
attr source packetReceivedFromUpper
attr title "packets received from higher layer, vector(packetBytes)"
vector 256 AODVgrayhole.host[9].wlan[0].mac.queue packetPushed:vector(packetBytes) ETV
attr interpolationmode none
attr title "packet pushed, vector(packetBytes)"
vector 257 AODVgrayhole.host[9].wlan[0].mac.queue queueLength:vector ETV
attr interpolationmode sample-hold
attr source "count(packetPushed) - count(packetPopped) - count(packetRemoved) - count(packetDropped)"
attr title "queue length, vector"
vector 258 AODVgrayhole.host[9].wlan[0].mac.queue packetPopped:vector(packetBytes) ETV
attr interpolationmode none
attr title "packet popped, vector(packetBytes)"
vector 259 AODVgrayhole.host[9].wlan[0].mac.queue queueingTime:vector ETV
attr interpolationmode none
attr source queueingTime(packetPopped)
attr title "queueing times, vector"
attr unit s
vector 260 AODVgrayhole.host[9].wlan[0].mac sentDownPk:vector(packetBytes) ETV
attr interpolationmode none
attr source packetSentToLower
attr title "packets sent to lower layer, vector(packetBytes)"
vector 261 AODVgrayhole.host[6].udp packetSent:vector(packetBytes) ETV
attr interpolationmode none
attr source packetSent
attr title "packets sent, vector(packetBytes)"
vector 262 AODVgrayhole.host[6].wlan[0].mac rcvdPkFromHl:vector(packetBytes) ETV
attr interpolationmode none
attr source packetReceivedFromUpper
attr title "packets received from higher layer, vector(packetBytes)"
vector 263 AODVgrayhole.host[6].wlan[0].mac.queue packetPushed:vector(packetBytes) ETV
attr interpolationmode none
attr title "packet pushed, vector(packetBytes)"
vector 264 AODVgrayhole.host[6].wlan[0].mac.queue queueLength:vector ETV
attr interpolationmode sample-hold
attr source "count(packetPushed) - count(packetPopped) - count(packetRemoved) - count(packetDropped)"
attr title "queue length, vector"
vector 265 AODVgrayhole.host[6].wlan[0].mac.queue packetPopped:vector(packetBytes) ETV
attr interpolationmode none
attr title "packet popped, vector(packetBytes)"
vector 266 AODVgrayhole.host[6].wlan[0].mac.queue queueingTime:vector ETV
attr interpolationmode none
attr source queueingTime(packetPopped)
attr title "queueing times, vector"
attr unit s
vector 267 AODVgrayhole.host[6].wlan[0].mac sentDownPk:vector(packetBytes) ETV
attr interpolationmode none
attr source packetSentToLower
attr title "packets sent to lower layer, vector(packetBytes)"
vector 268 AODVgrayhole.host[10].udp packetSent:vector(packetBytes) ETV
attr interpolationmode none
attr source packetSent
attr title "packets sent, vector(packetBytes)"
vector 269 AODVgrayhole.host[10].wlan[0].mac rcvdPkFromHl:vector(packetBytes) ETV
attr interpolationmode none
attr source packetReceivedFromUpper
attr title "packets received from higher layer, vector(packetBytes)"
vector 270 AODVgrayhole.host[10].wlan[0].mac.queue packetPushed:vector(packetBytes) ETV
attr interpolationmode none
attr title "packet pushed, vector(packetBytes)"
vector 271 AODVgrayhole.host[10].wlan[0].mac.queue queueLength:vector ETV
attr interpolationmode sample-hold
attr source "count(packetPushed) - count(packetPopped) - count(packetRemoved) - count(packetDropped)"
attr title "queue length, vector"
vector 272 AODVgrayhole.host[10].wlan[0].mac.queue packetPopped:vector(packetBytes) ETV
attr interpolationmode none
attr title "packet popped, vector(packetBytes)"
vector 273 AODVgrayhole.host[10].wlan[0].mac.queue queueingTime:vector ETV
attr interpolationmode none
attr source queueingTime(packetPopped)
attr title "queueing times, vector"
attr unit s
vector 274 AODVgrayhole.host[10].wlan[0].mac sentDownPk:vector(packetBytes) ETV
attr interpolationmode none
attr source packetSentToLower
attr title "packets sent to lower layer, vector(packetBytes)"
vector 275 AODVgrayhole.receiver.wlan[0].mac rcvdPkFromLl:vector(packetBytes) ETV
attr interpolationmode none
attr source packetReceivedFromLower
attr title "packets received from lower layer, vector(packetBytes)"
vector 276 AODVgrayhole.receiver.wlan[0].mac passedUpPk:vector(packetBytes) ETV
attr interpolationmode none
attr source packetSentToUpper
attr title "packets passed to higher layer, vector(packetBytes)"
vector 277 AODVgrayhole.receiver.udp packetReceived:vector(packetBytes) ETV
attr interpolationmode none
attr source packetReceived
attr title "packets received, vector(packetBytes)"
vector 278 AODVgrayhole.receiver.udp passedUpPk:vector(count) ETV
attr interpolationmode none
attr source packetSentToUpper
attr title "packets passed up, vector(count)"
vector 279 AODVgrayhole.receiver.udp packetSent:vector(packetBytes) ETV
attr interpolationmode none
attr source packetSent
attr title "packets sent, vector(packetBytes)"
vector 280 AODVgrayhole.receiver.ipv4.arp arpRequestSent:vector(packetBytes) ETV
attr source arpRequestSent
attr title "ARP request sent, vector(packetBytes)"
vector 281 AODVgrayhole.receiver.wlan[0].mac rcvdPkFromHl:vector(packetBytes) ETV
attr interpolationmode none
attr source packetReceivedFromUpper
attr title "packets received from higher layer, vector(packetBytes)"
vector 282 AODVgrayhole.receiver.wlan[0].mac.queue packetPushed:vector(packetBytes) ETV
attr interpolationmode none
attr title "packet pushed, vector(packetBytes)"
vector 283 AODVgrayhole.receiver.wlan[0].mac.queue queueLength:vector ETV
attr interpolationmode sample-hold
attr source "count(packetPushed) - count(packetPopped) - count(packetRemoved) - count(packetDropped)"
attr title "queue length, vector"
vector 284 AODVgrayhole.receiver.wlan[0].mac.queue packetPopped:vector(packetBytes) ETV
attr interpolationmode none
attr title "packet popped, vector(packetBytes)"
vector 285 AODVgrayhole.receiver.wlan[0].mac.queue queueingTime:vector ETV
attr interpolationmode none
attr source queueingTime(packetPopped)
attr title "queueing times, vector"
attr unit s
vector 286 AODVgrayhole.receiver.wlan[0].mac sentDownPk:vector(packetBytes) ETV
attr interpolationmode none
attr source packetSentToLower
attr title "packets sent to lower layer, vector(packetBytes)"
vector 287 AODVgrayhole.host[17].udp packetSent:vector(packetBytes) ETV
attr interpolationmode none
attr source packetSent
attr title "packets sent, vector(packetBytes)"
vector 288 AODVgrayhole.host[17].wlan[0].mac rcvdPkFromHl:vector(packetBytes) ETV
attr interpolationmode none
attr source packetReceivedFromUpper
attr title "packets received from higher layer, vector(packetBytes)"
vector 289 AODVgrayhole.host[17].wlan[0].mac.queue packetPushed:vector(packetBytes) ETV
attr interpolationmode none
attr title "packet pushed, vector(packetBytes)"
vector 290 AODVgrayhole.host[17].wlan[0].mac.queue queueLength:vector ETV
attr interpolationmode sample-hold
attr source "count(packetPushed) - count(packetPopped) - count(packetRemoved) - count(packetDropped)"
attr title "queue length, vector"
vector 291 AODVgrayhole.host[17].wlan[0].mac.queue packetPopped:vector(packetBytes) ETV
attr interpolationmode none
attr title "packet popped, vector(packetBytes)"
vector 292 AODVgrayhole.host[17].wlan[0].mac.queue queueingTime:vector ETV
attr interpolationmode none
attr source queueingTime(packetPopped)
attr title "queueing times, vector"
attr unit s
vector 293 AODVgrayhole.host[17].wlan[0].mac sentDownPk:vector(packetBytes) ETV
attr interpolationmode none
attr source packetSentToLower
attr title "packets sent to lower layer, vector(packetBytes)"
vector 294 AODVgrayhole.host[0].udp packetSent:vector(packetBytes) ETV
attr interpolationmode none
attr source packetSent
attr title "packets sent, vector(packetBytes)"
vector 295 AODVgrayhole.host[0].wlan[0].mac rcvdPkFromHl:vector(packetBytes) ETV
attr interpolationmode none
attr source packetReceivedFromUpper
attr title "packets received from higher layer, vector(packetBytes)"
vector 296 AODVgrayhole.host[0].wlan[0].mac.queue packetPushed:vector(packetBytes) ETV
attr interpolationmode none
attr title "packet pushed, vector(packetBytes)"
vector 297 AODVgrayhole.host[0].wlan[0].mac.queue queueLength:vector ETV
attr interpolationmode sample-hold
attr source "count(packetPushed) - count(packetPopped) - count(packetRemoved) - count(packetDropped)"
attr title "queue length, vector"
vector 298 AODVgrayhole.host[0].wlan[0].mac.queue packetPopped:vector(packetBytes) ETV
attr interpolationmode none
attr title "packet popped, vector(packetBytes)"
vector 299 AODVgrayhole.host[0].wlan[0].mac.queue queueingTime:vector ETV
attr interpolationmode none
attr source queueingTime(packetPopped)
attr title "queueing times, vector"
attr unit s
vector 300 AODVgrayhole.host[0].wlan[0].mac sentDownPk:vector(packetBytes) ETV
attr interpolationmode none
attr source packetSentToLower
attr title "packets sent to lower layer, vector(packetBytes)"
vector 301 AODVgrayhole.host[15].udp packetSent:vector(packetBytes) ETV
attr interpolationmode none
attr source packetSent
attr title "packets sent, vector(packetBytes)"
vector 302 AODVgrayhole.host[15].wlan[0].mac rcvdPkFromHl:vector(packetBytes) ETV
attr interpolationmode none
attr source packetReceivedFromUpper
attr title "packets received from higher layer, vector(packetBytes)"
vector 303 AODVgrayhole.host[15].wlan[0].mac.queue packetPushed:vector(packetBytes) ETV
attr interpolationmode none
attr title "packet pushed, vector(packetBytes)"
vector 304 AODVgrayhole.host[15].wlan[0].mac.queue queueLength:vector ETV
attr interpolationmode sample-hold
attr source "count(packetPushed) - count(packetPopped) - count(packetRemoved) - count(packetDropped)"
attr title "queue length, vector"
vector 305 AODVgrayhole.host[15].wlan[0].mac.queue packetPopped:vector(packetBytes) ETV
attr interpolationmode none
attr title "packet popped, vector(packetBytes)"
vector 306 AODVgrayhole.host[15].wlan[0].mac.queue queueingTime:vector ETV
attr interpolationmode none
attr source queueingTime(packetPopped)
attr title "queueing times, vector"
attr unit s
vector 307 AODVgrayhole.host[15].wlan[0].mac sentDownPk:vector(packetBytes) ETV
attr interpolationmode none
attr source packetSentToLower
attr title "packets sent to lower layer, vector(packetBytes)"
vector 308 AODVgrayhole.host[6].ipv4.arp arpReplySent:vector(packetBytes) ETV
attr source arpReplySent
attr title "ARP replies sent, vector(packetBytes)"
vector 309 AODVgrayhole.host[0].wlan[0].mac packetDropNotAddressedToUs:vector(packetBytes) ETV
attr interpolationmode none
attr source packetDropReasonIsNotAddressedToUs(packetDropped)
attr title "packet drop: not addressed to us, vector(packetBytes)"
vector 310 AODVgrayhole.host[10].wlan[0].mac packetDropNotAddressedToUs:vector(packetBytes) ETV
attr interpolationmode none
attr source packetDropReasonIsNotAddressedToUs(packetDropped)
attr title "packet drop: not addressed to us, vector(packetBytes)"
vector 311 AODVgrayhole.host[6].ipv4.arp arpRequestSent:vector(packetBytes) ETV
attr source arpRequestSent
attr title "ARP request sent, vector(packetBytes)"
vector 312 AODVgrayhole.host[1].ipv4.arp arpReplySent:vector(packetBytes) ETV
attr source arpReplySent
attr title "ARP replies sent, vector(packetBytes)"
vector 313 AODVgrayhole.ntu_Blackholer.wlan[0].mac packetDropNotAddressedToUs:vector(packetBytes) ETV
attr interpolationmode none
attr source packetDropReasonIsNotAddressedToUs(packetDropped)
attr title "packet drop: not addressed to us, vector(packetBytes)"
vector 314 AODVgrayhole.host[8].wlan[0].mac packetDropNotAddressedToUs:vector(packetBytes) ETV
attr interpolationmode none
attr source packetDropReasonIsNotAddressedToUs(packetDropped)
attr title "packet drop: not addressed to us, vector(packetBytes)"
vector 315 AODVgrayhole.host[4].wlan[0].mac packetDropNotAddressedToUs:vector(packetBytes) ETV
attr interpolationmode none
attr source packetDropReasonIsNotAddressedToUs(packetDropped)
attr title "packet drop: not addressed to us, vector(packetBytes)"
vector 316 AODVgrayhole.receiver.wlan[0].mac packetDropNotAddressedToUs:vector(packetBytes) ETV
attr interpolationmode none
attr source packetDropReasonIsNotAddressedToUs(packetDropped)
attr title "packet drop: not addressed to us, vector(packetBytes)"
vector 317 AODVgrayhole.host[1].ipv4.arp arpRequestSent:vector(packetBytes) ETV
attr source arpRequestSent
attr title "ARP request sent, vector(packetBytes)"
vector 318 AODVgrayhole.host[7].wlan[0].mac packetDropNotAddressedToUs:vector(packetBytes) ETV
attr interpolationmode none
attr source packetDropReasonIsNotAddressedToUs(packetDropped)
attr title "packet drop: not addressed to us, vector(packetBytes)"
vector 319 AODVgrayhole.host[5].wlan[0].mac packetDropNotAddressedToUs:vector(packetBytes) ETV
attr interpolationmode none
attr source packetDropReasonIsNotAddressedToUs(packetDropped)
attr title "packet drop: not addressed to us, vector(packetBytes)"
vector 320 AODVgrayhole.host[16].wlan[0].mac packetDropNotAddressedToUs:vector(packetBytes) ETV
attr interpolationmode none
attr source packetDropReasonIsNotAddressedToUs(packetDropped)
attr title "packet drop: not addressed to us, vector(packetBytes)"
vector 321 AODVgrayhole.host[6].wlan[0].mac packetDropNotAddressedToUs:vector(packetBytes) ETV
attr interpolationmode none
attr source packetDropReasonIsNotAddressedToUs(packetDropped)
attr title "packet drop: not addressed to us, vector(packetBytes)"
vector 322 AODVgrayhole.host[4].ipv4.arp arpRequestSent:vector(packetBytes) ETV
attr source arpRequestSent
attr title "ARP request sent, vector(packetBytes)"
vector 323 AODVgrayhole.sender.ipv4.arp arpReplySent:vector(packetBytes) ETV
attr source arpReplySent
attr title "ARP replies sent, vector(packetBytes)"
vector 324 AODVgrayhole.receiver.app[0] packetReceived:vector(packetBytes) ETV
attr interpolationmode none
attr source packetReceived
attr title "packets received, vector(packetBytes)"
vector 325 AODVgrayhole.receiver.app[0] throughput:vector ETV
attr source throughput(packetReceived)
attr title "throughput, vector"
attr unit bps
vector 326 AODVgrayhole.receiver.app[0] endToEndDelay:vector ETV
attr interpolationmode none
attr source dataAge(packetReceived)
attr title "end-to-end delay, vector"
attr unit s
vector 327 AODVgrayhole.receiver.app[0] rcvdPkSeqNo:vector ETV
attr interpolationmode none
attr source appPkSeqNo(packetReceived)
attr title "received packet sequence number, vector"
vector 328 AODVgrayhole.ntu_Blackholer.ipv4.ip rcvdPkt:vector ETV
attr interpolationmode none
attr title "Number of packet received, vector"
vector 329 AODVgrayhole.ntu_Blackholer.ipv4.ip droppings:vector ETV
attr interpolationmode none
attr title "Number of drops, vector"
vector 330 AODVgrayhole.ntu_Blackholer.ipv4.arp arpReplySent:vector(packetBytes) ETV
attr source arpReplySent
attr title "ARP replies sent, vector(packetBytes)"
vector 331 AODVgrayhole.sender.ipv4.arp arpRequestSent:vector(packetBytes) ETV
attr source arpRequestSent
attr title "ARP request sent, vector(packetBytes)"
vector 332 AODVgrayhole.host[2].ipv4.arp arpReplySent:vector(packetBytes) ETV
attr source arpReplySent
attr title "ARP replies sent, vector(packetBytes)"
vector 333 AODVgrayhole.host[2].ipv4.arp arpRequestSent:vector(packetBytes) ETV
attr source arpRequestSent
attr title "ARP request sent, vector(packetBytes)"
vector 334 AODVgrayhole.host[17].wlan[0].mac packetDropNotAddressedToUs:vector(packetBytes) ETV
attr interpolationmode none
attr source packetDropReasonIsNotAddressedToUs(packetDropped)
attr title "packet drop: not addressed to us, vector(packetBytes)"
vector 335 AODVgrayhole.host[11].ipv4.arp arpReplySent:vector(packetBytes) ETV
attr source arpReplySent
attr title "ARP replies sent, vector(packetBytes)"
vector 336 AODVgrayhole.host[11].ipv4.arp arpRequestSent:vector(packetBytes) ETV
attr source arpRequestSent
attr title "ARP request sent, vector(packetBytes)"
vector 337 AODVgrayhole.host[0].ipv4.arp arpReplySent:vector(packetBytes) ETV
attr source arpReplySent
attr title "ARP replies sent, vector(packetBytes)"
vector 338 AODVgrayhole.host[0].ipv4.arp arpRequestSent:vector(packetBytes) ETV
attr source arpRequestSent
attr title "ARP request sent, vector(packetBytes)"
vector 339 AODVgrayhole.host[17].ipv4.arp arpReplySent:vector(packetBytes) ETV
attr source arpReplySent
attr title "ARP replies sent, vector(packetBytes)"
vector 340 AODVgrayhole.host[17].ipv4.arp arpRequestSent:vector(packetBytes) ETV
attr source arpRequestSent
attr title "ARP request sent, vector(packetBytes)"
vector 341 AODVgrayhole.host[3].ipv4.arp arpReplySent:vector(packetBytes) ETV
attr source arpReplySent
attr title "ARP replies sent, vector(packetBytes)"
vector 342 AODVgrayhole.host[3].ipv4.arp arpRequestSent:vector(packetBytes) ETV
attr source arpRequestSent
attr title "ARP request sent, vector(packetBytes)"
vector 343 AODVgrayhole.host[7].ipv4.arp arpReplySent:vector(packetBytes) ETV
attr source arpReplySent
attr title "ARP replies sent, vector(packetBytes)"
vector 344 AODVgrayhole.host[7].ipv4.arp arpRequestSent:vector(packetBytes) ETV
attr source arpRequestSent
attr title "ARP request sent, vector(packetBytes)"
vector 345 AODVgrayhole.host[9].ipv4.arp arpReplySent:vector(packetBytes) ETV
attr source arpReplySent
attr title "ARP replies sent, vector(packetBytes)"
vector 346 AODVgrayhole.host[9].ipv4.arp arpRequestSent:vector(packetBytes) ETV
attr source arpRequestSent
attr title "ARP request sent, vector(packetBytes)"
vector 347 AODVgrayhole.host[14].ipv4.arp arpReplySent:vector(packetBytes) ETV
attr source arpReplySent
attr title "ARP replies sent, vector(packetBytes)"
vector 348 AODVgrayhole.host[3].ipv4.ip packetDropAddressResolutionFailed:vector(packetBytes) ETV
attr interpolationmode none
attr source packetDropReasonIsAddressResolutionFailed(packetDropped)
attr title "packet drop: address resolution failed, vector(packetBytes)"
vector 349 AODVgrayhole.host[15].ipv4.arp arpReplySent:vector(packetBytes) ETV
attr source arpReplySent
attr title "ARP replies sent, vector(packetBytes)"
vector 350 AODVgrayhole.host[15].ipv4.arp arpRequestSent:vector(packetBytes) ETV
attr source arpRequestSent
attr title "ARP request sent, vector(packetBytes)"
vector 351 AODVgrayhole.host[16].ipv4.arp arpReplySent:vector(packetBytes) ETV
attr source arpReplySent
attr title "ARP replies sent, vector(packetBytes)"
vector 352 AODVgrayhole.host[16].ipv4.arp arpRequestSent:vector(packetBytes) ETV
attr source arpRequestSent
attr title "ARP request sent, vector(packetBytes)"
vector 353 AODVgrayhole.host[12].ipv4.arp arpReplySent:vector(packetBytes) ETV
attr source arpReplySent
attr title "ARP replies sent, vector(packetBytes)"
vector 354 AODVgrayhole.host[12].ipv4.arp arpRequestSent:vector(packetBytes) ETV
attr source arpRequestSent
attr title "ARP request sent, vector(packetBytes)"
vector 355 AODVgrayhole.host[8].ipv4.arp arpRequestSent:vector(packetBytes) ETV
attr source arpRequestSent
attr title "ARP request sent, vector(packetBytes)"
vector 356 AODVgrayhole.host[5].ipv4.arp arpRequestSent:vector(packetBytes) ETV
attr source arpRequestSent
attr title "ARP request sent, vector(packetBytes)"
vector 357 AODVgrayhole.host[14].ipv4.arp arpRequestSent:vector(packetBytes) ETV
attr source arpRequestSent
attr title "ARP request sent, vector(packetBytes)"
vector 358 AODVgrayhole.host[10].ipv4.arp arpRequestSent:vector(packetBytes) ETV
attr source arpRequestSent
attr title "ARP request sent, vector(packetBytes)"
vector 359 AODVgrayhole.host[16].ipv4.ip packetDropAddressResolutionFailed:vector(packetBytes) ETV
attr interpolationmode none
attr source packetDropReasonIsAddressResolutionFailed(packetDropped)
attr title "packet drop: address resolution failed, vector(packetBytes)"
vector 360 AODVgrayhole.host[17].ipv4.ip packetDropAddressResolutionFailed:vector(packetBytes) ETV
attr interpolationmode none
attr source packetDropReasonIsAddressResolutionFailed(packetDropped)
attr title "packet drop: address resolution failed, vector(packetBytes)"
vector 361 AODVgrayhole.host[13].ipv4.arp arpRequestSent:vector(packetBytes) ETV
attr source arpRequestSent
attr title "ARP request sent, vector(packetBytes)"
vector 362 AODVgrayhole.host[5].ipv4.arp arpReplySent:vector(packetBytes) ETV
attr source arpReplySent
attr title "ARP replies sent, vector(packetBytes)"
vector 363 AODVgrayhole.host[13].ipv4.arp arpReplySent:vector(packetBytes) ETV
attr source arpReplySent
attr title "ARP replies sent, vector(packetBytes)"
vector 364 AODVgrayhole.host[10].ipv4.arp arpReplySent:vector(packetBytes) ETV
attr source arpReplySent
attr title "ARP replies sent, vector(packetBytes)"
vector 365 AODVgrayhole.host[5].ipv4.ip packetDropHopLimitReached:vector(packetBytes) ETV
attr interpolationmode none
attr source packetDropReasonIsHopLimitReached(packetDropped)
attr title "packet drop: hop limit reached, vector(packetBytes)"
vector 366 AODVgrayhole.host[8].ipv4.arp arpReplySent:vector(packetBytes) ETV
attr source arpReplySent
attr title "ARP replies sent, vector(packetBytes)"
vector 367 AODVgrayhole.sender.app[0] throughput:vector ETV
attr source throughput(packetReceived)
attr title "throughput, vector"
attr unit bps
0	0	0	0
0	0	0	0
0	0	0	4
1	0	0	0
1	0	0	0
1	0	0	4
2	0	0	0
2	0	0	0
2	0	0	4
3	0	0	0
3	0	0	0
3	0	0	4
4	0	0	0
4	0	0	0
4	0	0	4
5	0	0	0
5	0	0	0
5	0	0	4
6	0	0	0
6	0	0	0
6	0	0	4
7	0	0	0
7	0	0	0
7	0	0	4
8	0	0	0
8	0	0	0
8	0	0	4
9	0	0	0
9	0	0	0
9	0	0	4
10	0	0	0
10	0	0	0
10	0	0	4
11	0	0	0
11	0	0	0
11	0	0	4
12	0	0	0
12	0	0	0
12	0	0	4
13	0	0	0
13	0	0	0
13	0	0	4
14	0	0	0
14	0	0	0
14	0	0	4
15	0	0	0
15	0	0	0
15	0	0	4
16	0	0	0
16	0	0	0
16	0	0	4
17	0	0	0
17	0	0	0
17	0	0	4
18	0	0	0
18	0	0	0
18	0	0	4
19	0	0	0
19	0	0	0
19	0	0	4
20	0	0	0
20	0	0	0
20	0	0	4
21	0	0	1
21	4519	15.413856525623	3
21	4606	15.414204525623	2
21	4665	15.414257681904	1
21	4699	15.414292263935	3
21	4740	15.414640263935	1
21	4793	15.416512542014	3
21	4839	15.416860542014	2
21	4889	15.416861544751	3
21	4916	15.417113544751	2
21	4937	15.417155653965	1
21	4972	15.4181611454	3
21	5051	15.4185091454	2
21	5120	15.41855748048	1
21	5453	16.416861541749	3
21	5480	16.417113541749	1
21	5485	16.417113906398	3
21	5521	16.417365906398	1
21	5548	16.417366888432	3
21	5578	16.417698888432	1
21	5603	16.421302416516	3
21	5624	16.421554416516	1
21	5649	16.421554979426	3
21	5683	16.421806979426	1
21	5709	16.421807591243	3
21	5733	16.422139591243	1
21	5770	16.425339759302	3
21	5795	16.425591759302	1
21	5886	16.425845386741	3
21	5913	16.426177386741	1
21	6272	16.434528366824	3
21	6359	16.436828366824	1
21	6417	16.436828978616	3
21	6527	16.439128978616	2
21	6540	16.439129180494	1
21	6600	16.439129792267	3
21	6673	16.441429792267	1
21	6862	16.539129995544	3
21	6914	16.541429995544	1
21	6962	16.54143060648	3
21	7039	16.54373060648	2
21	7052	16.543730808071	1
21	7104	16.543731418987	3
21	7138	16.546031418987	1
21	8524	19.007231557217	3
21	8579	19.007483557217	2
21	8642	19.007673220372	1
21	8950	19.00885199348	3
21	9001	19.00919999348	1
21	9072	19.010073600066	3
21	9133	19.010421600066	1
21	9858	20.007231587776	3
21	9885	20.007483587776	1
21	9972	20.007737051663	3
21	9998	20.008069051663	1
21	11724	24.008928771034	3
21	11775	24.009276771034	1
21	11822	24.009336243873	3
21	11912	24.009684243873	1
21	11955	24.01007494053	3
21	11980	24.01042294053	1
21	12301	24.328895854024	3
21	12326	24.329243854024	1
21	12398	24.330329182893	3
21	12493	24.330677182893	1
21	12689	24.331554765176	3
21	12821	24.331902765176	2
21	12942	24.332038439441	1
21	13016	24.332415852216	3
21	13037	24.332763852216	1
21	13157	24.33418695637	3
21	13321	24.33453495637	1
21	13481	24.335472728472	3
21	13515	24.335820728472	1
21	14453	25.331786436026	3
21	14474	25.332038436026	1
21	14547	25.33229200704	3
21	14571	25.33262400704	1
21	14631	25.334098480708	3
21	14679	25.334350480708	1
21	14763	25.33780037706	3
21	14786	25.33805237706	1
21	14859	25.338306010119	3
21	14891	25.338638010119	1
21	18212	29.334910067649	3
21	18249	29.335258067649	1
21	19863	29.669410936271	3
21	19962	29.669758936271	1
21	20025	29.670875650244	3
21	20050	29.671223650244	1
21	20155	29.674692079039	3
21	20183	29.675024079039	1
21	20264	29.675747218721	3
21	20298	29.675999218721	1
21	20388	29.680938443972	3
21	20417	29.681190443972	1
21	20499	29.681444046271	3
21	20526	29.681776046271	1
21	20842	29.690096698598	3
21	20875	29.692396698598	1
21	23133	32.014674082356	3
21	23158	32.015022082356	1
21	23826	32.333308471626	3
21	23904	32.333656471626	1
21	24195	32.335006641341	3
21	24270	32.335354641341	2
21	24318	32.335447690021	1
21	24348	32.335448539229	3
21	24412	32.335700539229	1
21	24430	32.33570134461	3
21	24468	32.33595334461	1
21	24489	32.335954193797	3
21	24537	32.336286193797	1
21	24785	32.337332627677	3
21	24847	32.337680627677	1
21	24880	32.33845343951	3
21	24911	32.33870543951	1
21	24928	32.338705700178	3
21	24983	32.338957700178	1
21	25009	32.338958536111	3
21	25075	32.339290536111	1
21	25100	32.340534562546	3
21	25122	32.340866562546	1
21	25199	32.343167896256	3
21	25237	32.345467896256	1
21	25263	32.34546873197	3
21	25306	32.34776873197	1
21	32097	41.014002624514	3
21	32154	41.014350624514	1
21	32726	41.331766860586	3
21	32784	41.332114860586	1
21	32890	41.333554815632	3
21	32936	41.333902815632	2
21	32975	41.333904227423	3
21	33130	41.334156227423	1
21	33663	41.335695702694	3
21	33836	41.336043702694	1
21	34220	41.812569572708	3
21	34277	41.812917572708	1
21	34519	41.814522558891	3
21	34540	41.814870558891	1
21	34588	41.815074866903	3
21	34688	41.815422866903	1
21	35231	41.817762842886	3
21	35334	41.818110842886	1
21	35867	42.333904224908	3
21	35894	42.334156224908	1
21	35897	42.334156383592	3
21	35935	42.334408383592	1
21	35959	42.334409825942	3
21	35993	42.334741825942	1
21	36004	42.334742626455	3
21	36040	42.335074626455	1
21	36064	42.337314415858	3
21	36085	42.337566415858	1
21	36118	42.337567614713	3
21	36160	42.337819614713	2
21	36194	42.338151614706	1
21	36226	42.338261427366	3
21	36247	42.338593427366	1
21	36289	42.338653948019	3
21	36326	42.338985948019	1
21	36373	42.3390924717	3
21	36403	42.3394244717	1
21	36460	42.341287293908	3
21	36522	42.343587293908	2
21	36557	42.34358796689	3
21	36628	42.34588796689	1
21	36632	42.345888094116	3
21	36681	42.348188094116	1
21	39431	45.326824632161	3
21	39513	45.327172632161	1
21	40122	45.33267141825	3
21	40168	45.33301941825	1
21	40275	45.333270251535	3
21	40328	45.333618251535	1
21	41507	45.806967560603	3
21	41569	45.807315560603	1
21	41588	45.807316161373	3
21	41679	45.807648161373	1
21	41795	45.808570532123	3
21	41844	45.808918532123	1
21	41945	45.811688430225	3
21	41991	45.812036430225	2
21	42032	45.812308179286	1
21	42068	45.812369119283	3
21	42096	45.812621119283	1
21	42198	45.812874551001	3
21	42274	45.813206551001	1
21	43308	45.822713926941	3
21	43383	45.823045926941	1
21	43461	45.823379410649	3
21	43498	45.823631410649	1
21	43608	45.823884903632	3
21	43662	45.824216903632	1
21	43709	45.825663228863	3
21	43802	45.826011228863	1
21	44681	45.928707351552	3
21	44730	45.929071351552	1
21	45317	46.140370270216	3
21	45416	46.140718270216	1
21	45517	46.141000825064	3
21	45629	46.141348825064	1
21	45648	46.141349419289	3
21	45781	46.141681419289	1
21	45941	46.142890755329	3
21	46012	46.143238755329	2
21	46074	46.14350550701	1
21	46289	46.245754442281	3
21	46318	46.246150442281	1
21	47504	46.624923456183	3
21	47545	46.625271456183	1
21	47589	46.626356371464	3
21	47610	46.626704371464	1
21	47651	46.627551614726	3
21	47697	46.627899614726	1
21	47772	46.628133203383	3
21	47805	46.628481203383	1
21	47843	46.631216511272	3
21	47877	46.631564511272	1
21	47886	46.631564850895	3
21	47931	46.631896850895	1
21	47944	46.631897435175	3
21	47978	46.632229435175	1
21	48032	46.632915876888	3
21	48097	46.633247876888	1
21	48194	46.636096611829	3
21	48215	46.636444611829	1
21	48519	46.725824931499	3
21	48627	46.726156931499	1
21	49259	46.73662450745	3
21	49370	46.73697250745	1
21	50816	47.147230640622	3
21	50844	47.147482640622	1
21	51085	47.150978591409	3
21	51168	47.151230591409	1
21	51737	47.471212343205	3
21	51828	47.471560343205	1
21	52022	47.472038283629	3
21	52090	47.472370283629	1
21	52142	47.47259785478	3
21	52262	47.47294585478	1
21	52430	47.473919596846	3
21	52570	47.474267596846	1
21	52743	47.475118743512	3
21	52883	47.475466743512	1
21	52962	47.477805898063	3
21	52995	47.478057898063	1
21	53080	47.478311237489	3
21	53111	47.478643237489	1
21	54738	48.147230653565	3
21	54759	48.147482653565	1
21	54833	48.147736229339	3
21	54861	48.148068229339	1
21	54908	48.150978584716	3
21	54978	48.151230584716	1
21	55452	49.009202911702	3
21	55481	49.009454911702	1
21	55543	49.009707819258	3
21	55579	49.012007819258	1
21	55709	49.150978579177	3
21	55780	49.151230579177	1
21	59334	55.328430979914	3
21	59371	55.328778979914	1
21	60202	55.806206694054	3
21	60239	55.806554694054	1
21	60284	55.806795109648	3
[...]
367	254199	72.3	0
367	254199	72.4	0
367	254199	72.5	0
367	254199	72.6	0
367	254199	72.7	0
367	254199	72.8	0
367	254199	72.9	0
367	254199	73	0
367	254199	73.1	0
367	254199	73.2	0
367	254199	73.3	0
367	254199	73.4	0
367	254199	73.5	0
367	254199	73.6	0
367	254199	73.7	0
367	254199	73.8	0
367	254199	73.9	0
367	254199	74	0
367	254199	74.1	0
367	254199	74.2	0
367	254199	74.3	0
367	254199	74.4	0
367	254199	74.5	0
367	254199	74.6	0
367	254199	74.7	0
367	254199	74.8	0
367	254199	74.9	0
367	254199	75	0
367	254199	75.1	0
367	254199	75.2	0
367	254199	75.3	0
367	254199	75.4	0
367	254199	75.5	0
367	254199	75.6	0
367	254199	75.7	0
367	254199	75.8	0
367	254199	75.9	0
367	254199	76	0
367	254199	76.1	0
367	254199	76.2	0
367	254199	76.3	0
367	254199	76.4	0
367	254199	76.5	0
367	254199	76.6	0
367	254199	76.7	0
367	254199	76.8	0
367	254199	76.9	0
367	254199	77	0
367	254199	77.1	0
367	254199	77.2	0
367	254199	77.3	0
367	254199	77.4	0
367	254199	77.5	0
367	254199	77.6	0
367	254199	77.7	0
367	254199	77.8	0
367	254199	77.9	0
367	254199	78	0
367	254199	78.1	0
367	254199	78.2	0
367	254199	78.3	0
367	254199	78.4	0
367	254199	78.5	0
367	254199	78.6	0
367	254199	78.7	0
367	254199	78.8	0
367	254199	78.9	0
367	254199	79	0
367	254199	79.1	0
367	254199	79.2	0
367	254199	79.3	0
367	254199	79.4	0
367	254199	79.5	0
367	254199	79.6	0
367	254199	79.7	0
367	254199	79.8	0
367	254199	79.9	0
367	254199	80	0
367	254199	80.1	0
367	254199	80.2	0
367	254199	80.3	0
367	254199	80.4	0
367	254199	80.5	0
367	254199	80.6	0
367	254199	80.7	0
367	254199	80.8	0
367	254199	80.9	0
367	254199	81	0
367	254199	81.1	0
367	254199	81.2	0
367	254199	81.3	0
367	254199	81.4	0
367	254199	81.5	0
367	254199	81.6	0
367	254199	81.7	0
367	254199	81.8	0
367	254199	81.9	0
367	254199	82	0
367	254199	82.1	0
367	254199	82.2	0
367	254199	82.3	0
367	254199	82.4	0
367	254199	82.5	0
367	254199	82.6	0
367	254199	82.7	0
367	254199	82.8	0
367	254199	82.9	0
367	254199	83	0
367	254199	83.1	0
367	254199	83.2	0
367	254199	83.3	0
367	254199	83.4	0
367	254199	83.5	0
367	254199	83.6	0
367	254199	83.7	0
367	254199	83.8	0
367	254199	83.9	0
367	254199	84	0
367	254199	84.1	0
367	254199	84.2	0
367	254199	84.3	0
367	254199	84.4	0
367	254199	84.5	0
367	254199	84.6	0
367	254199	84.7	0
367	254199	84.8	0
367	254199	84.9	0
367	254199	85	0
367	254199	85.1	0
367	254199	85.2	0
367	254199	85.3	0
367	254199	85.4	0
367	254199	85.5	0
367	254199	85.6	0
367	254199	85.7	0
367	254199	85.8	0
367	254199	85.9	0
367	254199	86	0
367	254199	86.1	0
367	254199	86.2	0
367	254199	86.3	0
367	254199	86.4	0
367	254199	86.5	0
367	254199	86.6	0
367	254199	86.7	0
367	254199	86.8	0
367	254199	86.9	0
367	254199	87	0
367	254199	87.1	0
367	254199	87.2	0
367	254199	87.3	0
367	254199	87.4	0
367	254199	87.5	0
367	254199	87.6	0
367	254199	87.7	0
367	254199	87.8	0
367	254199	87.9	0
367	254199	88	0
367	254199	88.1	0
367	254199	88.2	0
367	254199	88.3	0
367	254199	88.4	0
367	254199	88.5	0
367	254199	88.6	0
367	254199	88.7	0
367	254199	88.8	0
367	254199	88.9	0
367	254199	89	0
367	254199	89.1	0
367	254199	89.2	0
367	254199	89.3	0
367	254199	89.4	0
367	254199	89.5	0
367	254199	89.6	0
367	254199	89.7	0
367	254199	89.8	0
367	254199	89.9	0
367	254199	90	0
367	254199	90.1	0
367	254199	90.2	0
367	254199	90.3	0
367	254199	90.4	0
367	254199	90.5	0
367	254199	90.6	0
367	254199	90.7	0
367	254199	90.8	0
367	254199	90.9	0
367	254199	91	0
367	254199	91.1	0
367	254199	91.2	0
367	254199	91.3	0
367	254199	91.4	0
367	254199	91.5	0
367	254199	91.6	0
367	254199	91.7	0
367	254199	91.8	0
367	254199	91.9	0
367	254199	92	0
367	254199	92.1	0
367	254199	92.2	0
367	254199	92.3	0
367	254199	92.4	0
367	254199	92.5	0
367	254199	92.6	0
367	254199	92.7	0
367	254199	92.8	0
367	254199	92.9	0
367	254199	93	0
367	254199	93.1	0
367	254199	93.2	0
367	254199	93.3	0
367	254199	93.4	0
367	254199	93.5	0
367	254199	93.6	0
367	254199	93.7	0
367	254199	93.8	0
367	254199	93.9	0
367	254199	94	0
367	254199	94.1	0
367	254199	94.2	0
367	254199	94.3	0
367	254199	94.4	0
367	254199	94.5	0
367	254199	94.6	0
367	254199	94.7	0
367	254199	94.8	0
367	254199	94.9	0
367	254199	95	0
367	254199	95.1	0
367	254199	95.2	0
367	254199	95.3	0
367	254199	95.4	0
367	254199	95.5	0
367	254199	95.6	0
367	254199	95.7	0
367	254199	95.8	0
367	254199	95.9	0
367	254199	96	0
367	254199	96.1	0
367	254199	96.2	0
367	254199	96.3	0
367	254199	96.4	0
367	254199	96.5	0
367	254199	96.6	0
367	254199	96.7	0
367	254199	96.8	0
367	254199	96.9	0
367	254199	97	0
367	254199	97.1	0
367	254199	97.2	0
367	254199	97.3	0
367	254199	97.4	0
367	254199	97.5	0
367	254199	97.6	0
367	254199	97.7	0
367	254199	97.8	0
367	254199	97.9	0
367	254199	98	0
367	254199	98.1	0
367	254199	98.2	0
367	254199	98.3	0
367	254199	98.4	0
367	254199	98.5	0
367	254199	98.6	0
367	254199	98.7	0
367	254199	98.8	0
367	254199	98.9	0
367	254199	99	0
367	254199	99.1	0
367	254199	99.2	0
367	254199	99.3	0
367	254199	99.4	0
367	254199	99.5	0
367	254199	99.6	0
367	254199	99.7	0
367	254199	99.8	0
367	254199	99.9	0
367	254199	100	0
367	254199	100.1	0
367	254199	100.2	0
367	254199	100.3	0
367	254199	100.4	0
367	254199	100.5	0
367	254199	100.6	0
367	254199	100.7	0
367	254199	100.8	0
367	254199	100.9	0
367	254199	101	0
367	254199	101.1	0
367	254199	101.2	0
367	254199	101.3	0
367	254199	101.4	0
367	254199	101.5	0
367	254199	101.6	0
367	254199	101.7	0
367	254199	101.8	0
367	254199	101.9	0
367	254199	102	0
367	254199	102.1	0
367	254199	102.2	0
367	254199	102.3	0
367	254199	102.4	0
367	254199	102.5	0
367	254199	102.6	0
367	254199	102.7	0
367	254199	102.8	0
367	254199	102.9	0
367	254199	103	0
367	254199	103.1	0
367	254199	103.2	0
367	254199	103.3	0
367	254199	103.4	0
367	254199	103.5	0
367	254199	103.6	0
367	254199	103.7	0
367	254199	103.8	0
367	254199	103.9	0
367	254199	104	0
367	254199	104.1	0
367	254199	104.2	0
367	254199	104.3	0
367	254199	104.4	0
367	254199	104.5	0
367	254199	104.6	0
367	254199	104.7	0
367	254199	104.8	0
367	254199	104.9	0
367	254199	105	0
367	254199	105.1	0
367	254199	105.2	0
367	254199	105.3	0
367	254199	105.4	0
367	254199	105.5	0
367	254199	105.6	0
367	254199	105.7	0
367	254199	105.8	0
367	254199	105.9	0
367	254199	106	0
367	254199	106.1	0
367	254199	106.2	0
367	254199	106.3	0
367	254199	106.4	0
367	254199	106.5	0
367	254199	106.6	0
367	254199	106.7	0
367	254199	106.8	0
367	254199	106.9	0
367	254199	107	0
367	254199	107.1	0
367	254199	107.2	0
367	254199	107.3	0
367	254199	107.4	0
367	254199	107.5	0
367	254199	107.6	0
367	254199	107.7	0
367	254199	107.8	0
367	254199	107.9	0
367	254199	108	0
367	254199	108.1	0
367	254199	108.2	0
367	254199	108.3	0
367	254199	108.4	0
367	254199	108.5	0
367	254199	108.6	0
367	254199	108.7	0
367	254199	108.8	0
367	254199	108.9	0
367	254199	109	0
367	254199	109.1	0
367	254199	109.2	0
367	254199	109.3	0
367	254199	109.4	0
367	254199	109.5	0
367	254199	109.6	0
367	254199	109.7	0
367	254199	109.8	0
367	254199	109.9	0
367	254199	110	0
367	254199	110.1	0
367	254199	110.2	0
367	254199	110.3	0
367	254199	110.4	0
367	254199	110.5	0
367	254199	110.6	0
367	254199	110.7	0
367	254199	110.8	0
367	254199	110.9	0
367	254199	111	0
367	254199	111.1	0
367	254199	111.2	0
367	254199	111.3	0
367	254199	111.4	0
367	254199	111.5	0
367	254199	111.6	0
367	254199	111.7	0
367	254199	111.8	0
367	254199	111.9	0
367	254199	112	0
367	254199	112.1	0
367	254199	112.2	0
367	254199	112.3	0
367	254199	112.4	0
367	254199	112.5	0
367	254199	112.6	0
367	254199	112.7	0
367	254199	112.8	0
367	254199	112.9	0
367	254199	113	0
367	254199	113.1	0
367	254199	113.2	0
367	254199	113.3	0
367	254199	113.4	0
367	254199	113.5	0
367	254199	113.6	0
367	254199	113.7	0
367	254199	113.8	0
367	254199	113.9	0
367	254199	114	0
367	254199	114.1	0
367	254199	114.2	0
367	254199	114.3	0
367	254199	114.4	0
367	254199	114.5	0
367	254199	114.6	0
367	254199	114.7	0
367	254199	114.8	0
367	254199	114.9	0
367	254199	115	0
367	254199	115.1	0
367	254199	115.2	0
367	254199	115.3	0
367	254199	115.4	0
367	254199	115.5	0
367	254199	115.6	0
367	254199	115.7	0
367	254199	115.8	0
367	254199	115.9	0
367	254199	116	0
367	254199	116.1	0
367	254199	116.2	0
367	254199	116.3	0
367	254199	116.4	0
367	254199	116.5	0
367	254199	116.6	0
367	254199	116.7	0
367	254199	116.8	0
367	254199	116.9	0
367	254199	117	0
367	254199	117.1	0
367	254199	117.2	0
367	254199	117.3	0
367	254199	117.4	0
367	254199	117.5	0
367	254199	117.6	0
367	254199	117.7	0
367	254199	117.8	0
367	254199	117.9	0
367	254199	118	0
367	254199	118.1	0
367	254199	118.2	0
367	254199	118.3	0
367	254199	118.4	0
367	254199	118.5	0
367	254199	118.6	0
367	254199	118.7	0
367	254199	118.8	0
367	254199	118.9	0
367	254199	119	0
367	254199	119.1	0
367	254199	119.2	0
367	254199	119.3	0
367	254199	119.4	0
367	254199	119.5	0
367	254199	119.6	0
367	254199	119.7	0
367	254199	119.8	0
367	254199	119.9	0
367	254199	120	0
367	254199	120.1	0
367	254199	120.2	0
367	254199	120.3	0
367	254199	120.4	0
367	254199	120.5	0
367	254199	120.6	0
367	254199	120.7	0
367	254199	120.8	0
367	254199	120.9	0
367	254199	121	0
367	254199	121.1	0
367	254199	121.2	0
367	254199	121.3	0
367	254199	121.4	0
367	254199	121.5	0
367	254199	121.6	0
367	254199	121.7	0
367	254199	121.8	0
367	254199	121.9	0
367	254199	122	0
367	254199	122.1	0
367	254199	122.2	0
367	254199	122.3	0
367	254199	122.4	0
367	254199	122.5	0
367	254199	122.6	0
367	254199	122.7	0
367	254199	122.8	0
367	254199	122.9	0
367	254199	123	0
367	254199	123.1	0
367	254199	123.2	0
367	254199	123.3	0
367	254199	123.4	0
367	254199	123.5	0
367	254199	123.6	0
367	254199	123.7	0
367	254199	123.8	0
367	254199	123.9	0
367	254199	124	0
367	254199	124.1	0
367	254199	124.2	0
367	254199	124.3	0
367	254199	124.4	0
367	254199	124.5	0
367	254199	124.6	0
367	254199	124.7	0
367	254199	124.8	0
367	254199	124.9	0
367	254199	125	0
367	254199	125.1	0
367	254199	125.2	0
367	254199	125.3	0
367	254199	125.4	0
367	254199	125.5	0
367	254199	125.6	0
367	254199	125.7	0
367	254199	125.8	0
367	254199	125.9	0
367	254199	126	0
367	254199	126.1	0
367	254199	126.2	0
367	254199	126.3	0
367	254199	126.4	0
367	254199	126.5	0
367	254199	126.6	0
367	254199	126.7	0
367	254199	126.8	0
367	254199	126.9	0
367	254199	127	0
367	254199	127.1	0
367	254199	127.2	0
367	254199	127.3	0
367	254199	127.4	0
367	254199	127.5	0
367	254199	127.6	0
367	254199	127.7	0
367	254199	127.8	0
367	254199	127.9	0
367	254199	128	0
367	254199	128.1	0
367	254199	128.2	0
367	254199	128.3	0
367	254199	128.4	0
367	254199	128.5	0
367	254199	128.6	0
367	254199	128.7	0
367	254199	128.8	0
367	254199	128.9	0
367	254199	129	0
367	254199	129.1	0
367	254199	129.2	0
367	254199	129.3	0
367	254199	129.4	0
367	254199	129.5	0
367	254199	129.6	0
367	254199	129.7	0
367	254199	129.8	0
367	254199	129.9	0
367	254199	130	0
367	254199	130.1	0
367	254199	130.2	0
367	254199	130.3	0
367	254199	130.4	0
367	254199	130.5	0
367	254199	130.6	0
367	254199	130.7	0
367	254199	130.8	0
367	254199	130.9	0
367	254199	131	0
367	254199	131.1	0
367	254199	131.2	0
367	254199	131.3	0
367	254199	131.4	0
367	254199	131.5	0
367	254199	131.6	0
367	254199	131.7	0
367	254199	131.8	0
367	254199	131.9	0
367	254199	132	0
367	254199	132.1	0
367	254199	132.2	0
367	254199	132.3	0
367	254199	132.4	0
367	254199	132.5	0
367	254199	132.6	0
367	254199	132.7	0
367	254199	132.8	0
367	254199	132.9	0
367	254199	133	0
367	254199	133.1	0
367	254199	133.2	0
367	254199	133.3	0
367	254199	133.4	0
367	254199	133.5	0
367	254199	133.6	0
367	254199	133.7	0
367	254199	133.8	0
367	254199	133.9	0
367	254199	134	0
367	254199	134.1	0
367	254199	134.2	0
367	254199	134.3	0
367	254199	134.4	0
367	254199	134.5	0
367	254199	134.6	0
367	254199	134.7	0
367	254199	134.8	0
367	254199	134.9	0
367	254199	135	0
367	254199	135.1	0
367	254199	135.2	0
367	254199	135.3	0
367	254199	135.4	0
367	254199	135.5	0
367	254199	135.6	0
367	254199	135.7	0
367	254199	135.8	0
367	254199	135.9	0
367	254199	136	0
367	254199	136.1	0
367	254199	136.2	0
367	254199	136.3	0
367	254199	136.4	0
367	254199	136.5	0
367	254199	136.6	0
367	254199	136.7	0
367	254199	136.8	0
367	254199	136.9	0
367	254199	137	0
367	254199	137.1	0
367	254199	137.2	0
367	254199	137.3	0
367	254199	137.4	0
367	254199	137.5	0
367	254199	137.6	0
367	254199	137.7	0
367	254199	137.8	0
367	254199	137.9	0
367	254199	138	0
367	254199	138.1	0
367	254199	138.2	0
367	254199	138.3	0
367	254199	138.4	0
367	254199	138.5	0
367	254199	138.6	0
367	254199	138.7	0
367	254199	138.8	0
367	254199	138.9	0
367	254199	139	0
367	254199	139.1	0
367	254199	139.2	0
367	254199	139.3	0
367	254199	139.4	0
367	254199	139.5	0
367	254199	139.6	0
367	254199	139.7	0
367	254199	139.8	0
367	254199	139.9	0
367	254199	140	0
367	254199	140.1	0
367	254199	140.2	0
367	254199	140.3	0
367	254199	140.4	0
367	254199	140.5	0
367	254199	140.6	0
367	254199	140.7	0
367	254199	140.8	0
367	254199	140.9	0
367	254199	141	0
367	254199	141.1	0
367	254199	141.2	0
367	254199	141.3	0
367	254199	141.4	0
367	254199	141.5	0
367	254199	141.6	0
367	254199	141.7	0
367	254199	141.8	0
367	254199	141.9	0
367	254199	142	0
367	254199	142.1	0
367	254199	142.2	0
367	254199	142.3	0
367	254199	142.4	0
367	254199	142.5	0
367	254199	142.6	0
367	254199	142.7	0
367	254199	142.8	0
367	254199	142.9	0
367	254199	143	0
367	254199	143.1	0
367	254199	143.2	0
367	254199	143.3	0
367	254199	143.4	0
367	254199	143.5	0
367	254199	143.6	0
367	254199	143.7	0
367	254199	143.8	0
367	254199	143.9	0
367	254199	144	0
367	254199	144.1	0
367	254199	144.2	0
367	254199	144.3	0
367	254199	144.4	0
367	254199	144.5	0
367	254199	144.6	0
367	254199	144.7	0
367	254199	144.8	0
367	254199	144.9	0
367	254199	145	0
367	254199	145.1	0
367	254199	145.2	0
367	254199	145.3	0
367	254199	145.4	0
367	254199	145.5	0
367	254199	145.6	0
367	254199	145.7	0
367	254199	145.8	0
367	254199	145.9	0
367	254199	146	0
367	254199	146.1	0
367	254199	146.2	0
367	254199	146.3	0
367	254199	146.4	0
367	254199	146.5	0
367	254199	146.6	0
367	254199	146.7	0
367	254199	146.8	0
367	254199	146.9	0
367	254199	147	0
367	254199	147.1	0
367	254199	147.2	0
367	254199	147.3	0
367	254199	147.4	0
367	254199	147.5	0
367	254199	147.6	0
367	254199	147.7	0
367	254199	147.8	0
367	254199	147.9	0
367	254199	148	0
367	254199	148.1	0
367	254199	148.2	0
367	254199	148.3	0
367	254199	148.4	0
367	254199	148.5	0
367	254199	148.6	0
367	254199	148.7	0
367	254199	148.8	0
367	254199	148.9	0
367	254199	149	0
367	254199	149.1	0
367	254199	149.2	0
367	254199	149.3	0
367	254199	149.4	0
367	254199	149.5	0
367	254199	149.6	0
367	254199	149.7	0
367	254199	149.8	0
367	254199	149.9	0
367	254199	150	0
367	254199	150.1	0
367	254199	150.2	0
367	254199	150.3	0
367	254199	150.4	0
367	254199	150.5	0
367	254199	150.6	0
367	254199	150.7	0
367	254199	150.8	0
367	254199	150.9	0
367	254199	151	0
367	254199	151.1	0
367	254199	151.2	0
367	254199	151.3	0
367	254199	151.4	0
367	254199	151.5	0
367	254199	151.6	0
367	254199	151.7	0
367	254199	151.8	0
367	254199	151.9	0
367	254199	152	0
367	254199	152.1	0
367	254199	152.2	0
367	254199	152.3	0
367	254199	152.4	0
367	254199	152.5	0
367	254199	152.6	0
367	254199	152.7	0
367	254199	152.8	0
367	254199	152.9	0
367	254199	153	0
367	254199	153.1	0
367	254199	153.2	0
367	254199	153.3	0
367	254199	153.4	0
367	254199	153.5	0
367	254199	153.6	0
367	254199	153.7	0
367	254199	153.8	0
367	254199	153.9	0
367	254199	154	0
367	254199	154.1	0
367	254199	154.2	0
367	254199	154.3	0
367	254199	154.4	0
367	254199	154.5	0
367	254199	154.6	0
367	254199	154.7	0
367	254199	154.8	0
367	254199	154.9	0
367	254199	155	0
367	254199	155.1	0
367	254199	155.2	0
367	254199	155.3	0
367	254199	155.4	0
367	254199	155.5	0
367	254199	155.6	0
367	254199	155.7	0
367	254199	155.8	0
367	254199	155.9	0
367	254199	156	0
367	254199	156.1	0
367	254199	156.2	0
367	254199	156.3	0
367	254199	156.4	0
367	254199	156.5	0
367	254199	156.6	0
367	254199	156.7	0
367	254199	156.8	0
367	254199	156.9	0
367	254199	157	0
367	254199	157.1	0
367	254199	157.2	0
367	254199	157.3	0
367	254199	157.4	0
367	254199	157.5	0
367	254199	157.6	0
367	254199	157.7	0
367	254199	157.8	0
367	254199	157.9	0
367	254199	158	0
367	254199	158.1	0
367	254199	158.2	0
367	254199	158.3	0
367	254199	158.4	0
367	254199	158.5	0
367	254199	158.6	0
367	254199	158.7	0
367	254199	158.8	0
367	254199	158.9	0
367	254199	159	0
367	254199	159.1	0
367	254199	159.2	0
367	254199	159.3	0
367	254199	159.4	0
367	254199	159.5	0
367	254199	159.6	0
367	254199	159.7	0
367	254199	159.8	0
367	254199	159.9	0
367	254199	160	0
367	254199	160.1	0
367	254199	160.2	0
367	254199	160.3	0
367	254199	160.4	0
367	254199	160.5	0
367	254199	160.6	0
367	254199	160.7	0
367	254199	160.8	0
367	254199	160.9	0
367	254199	161	0
367	254199	161.1	0
367	254199	161.2	0
367	254199	161.3	0
367	254199	161.4	0
367	254199	161.5	0
367	254199	161.6	0
367	254199	161.7	0
367	254199	161.8	0
367	254199	161.9	0
367	254199	162	0
367	254199	162.1	0
367	254199	162.2	0
367	254199	162.3	0
367	254199	162.4	0
367	254199	162.5	0
367	254199	162.6	0
367	254199	162.7	0
367	254199	162.8	0
367	254199	162.9	0
367	254199	163	0
367	254199	163.1	0
367	254199	163.2	0
367	254199	163.3	0
367	254199	163.4	0
367	254199	163.5	0
367	254199	163.6	0
367	254199	163.7	0
367	254199	163.8	0
367	254199	163.9	0
367	254199	164	0
367	254199	164.1	0
367	254199	164.2	0
367	254199	164.3	0
367	254199	164.4	0
367	254199	164.5	0
367	254199	164.6	0
367	254199	164.7	0
367	254199	164.8	0
367	254199	164.9	0
367	254199	165	0
367	254199	165.1	0
367	254199	165.2	0
367	254199	165.3	0
367	254199	165.4	0
367	254199	165.5	0
367	254199	165.6	0
367	254199	165.7	0
367	254199	165.8	0
367	254199	165.9	0
367	254199	166	0
367	254199	166.1	0
367	254199	166.2	0
367	254199	166.3	0
367	254199	166.4	0
367	254199	166.5	0
367	254199	166.6	0
367	254199	166.7	0
367	254199	166.8	0
367	254199	166.9	0
367	254199	167	0
367	254199	167.1	0
367	254199	167.2	0
367	254199	167.3	0
367	254199	167.4	0
367	254199	167.5	0
367	254199	167.6	0
367	254199	167.7	0
367	254199	167.8	0
367	254199	167.9	0
367	254199	168	0
367	254199	168.1	0
367	254199	168.2	0
367	254199	168.3	0
367	254199	168.4	0
367	254199	168.5	0
367	254199	168.6	0
367	254199	168.7	0
367	254199	168.8	0
367	254199	168.9	0
367	254199	169	0
367	254199	169.1	0
367	254199	169.2	0
367	254199	169.3	0
367	254199	169.4	0
367	254199	169.5	0
367	254199	169.6	0
367	254199	169.7	0
367	254199	169.8	0
367	254199	169.9	0
367	254199	170	0
367	254199	170.1	0
367	254199	170.2	0
367	254199	170.3	0
367	254199	170.4	0
367	254199	170.5	0
367	254199	170.6	0
367	254199	170.7	0
367	254199	170.8	0
367	254199	170.9	0
367	254199	171	0
367	254199	171.1	0
367	254199	171.2	0
367	254199	171.3	0
367	254199	171.4	0
367	254199	171.5	0
367	254199	171.6	0
367	254199	171.7	0
367	254199	171.8	0
367	254199	171.9	0
367	254199	172	0
367	254199	172.1	0
367	254199	172.2	0
367	254199	172.3	0
367	254199	172.4	0
367	254199	172.5	0
367	254199	172.6	0
367	254199	172.7	0
367	254199	172.8	0
367	254199	172.9	0
367	254199	173	0
367	254199	173.1	0
367	254199	173.2	0
367	254199	173.3	0
367	254199	173.4	0
367	254199	173.5	0
367	254199	173.6	0
367	254199	173.7	0
367	254199	173.8	0
367	254199	173.9	0
367	254199	174	0
367	254199	174.1	0
367	254199	174.2	0
367	254199	174.3	0
367	254199	174.4	0
367	254199	174.5	0
367	254199	174.6	0
367	254199	174.7	0
367	254199	174.8	0
367	254199	174.9	0
367	254199	175	0
367	254199	175.1	0
367	254199	175.2	0
367	254199	175.3	0
367	254199	175.4	0
367	254199	175.5	0
367	254199	175.6	0
367	254199	175.7	0
367	254199	175.8	0
367	254199	175.9	0
367	254199	176	0
367	254199	176.1	0
367	254199	176.2	0
367	254199	176.3	0
367	254199	176.4	0
367	254199	176.5	0
367	254199	176.6	0
367	254199	176.7	0
367	254199	176.8	0
367	254199	176.9	0
367	254199	177	0
367	254199	177.1	0
367	254199	177.2	0
367	254199	177.3	0
367	254199	177.4	0
367	254199	177.5	0
367	254199	177.6	0
367	254199	177.7	0
367	254199	177.8	0
367	254199	177.9	0
367	254199	178	0
367	254199	178.1	0
367	254199	178.2	0
367	254199	178.3	0
367	254199	178.4	0
367	254199	178.5	0
367	254199	178.6	0
367	254199	178.7	0
367	254199	178.8	0
367	254199	178.9	0
367	254199	179	0
367	254199	179.1	0
367	254199	179.2	0
367	254199	179.3	0
367	254199	179.4	0
367	254199	179.5	0
367	254199	179.6	0
367	254199	179.7	0
367	254199	179.8	0
367	254199	179.9	0
367	254199	180	0

