version 2
run IPv4SlowMobility-blackhole-0-20200316-09:18:29-32350
attr configname IPv4SlowMobility-blackhole
attr datetime 20200316-09:18:29
attr experiment IPv4SlowMobility-blackhole
attr inifile AODVgrayhole.ini
attr iterationvars ""
attr iterationvarsf ""
attr measurement ""
attr network AODVgrayhole
attr processid 32350
attr repetition 0
attr replication #0
attr resultdir results
attr runnumber 0
attr seedset 0
param **.aodv.activeRouteTimeout 3s
param **.host[0..18].mobility.typename "\"MassMobility\""
param **.sender.mobility.typename "\"StationaryMobility\""
param **.receiver.mobility.typename "\"StationaryMobility\""
param **.host[*].mobility.changeInterval "normal(5s, 0.1s)"
param **.host[*].mobility.angleDelta "normal(0deg, 30deg)"
param **.host[*].mobility.speed "normal(2mps, 0.01mps)"
param *.host[*].wlan[*].radio.transmitter.communicationRange 250m
param **.wlan[*].typename "\"AckingWirelessInterface\""
param **.wlan[*].bitrate 2Mbps
param **.wlan[*].mac.headerLength 23B
param **.wlan[*].radio.typename "\"UnitDiskRadio\""
param **.wlan[*].radio.transmitter.headerLength 96b
param **.wlan[*].radio.transmitter.communicationRange 250m
param **.wlan[*].radio.transmitter.interferenceRange 0m
param **.wlan[*].radio.transmitter.detectionRange 0m
param **.wlan[*].radio.receiver.ignoreInterference true
param *.numHosts 18
param **.host[*].mobility.typename "\"StationaryMobility\""
param **.mobility.constraintAreaMinZ 0m
param **.mobility.constraintAreaMaxZ 0m
param **.mobility.constraintAreaMinX 5m
param **.mobility.constraintAreaMinY 5m
param **.mobility.constraintAreaMaxX 785m
param **.mobility.constraintAreaMaxY 490m
param *.visualizer.sceneVisualizer.descriptionFigure "\"title\""
param *.visualizer.dataLinkVisualizer.displayLinks true
param *.visualizer.networkRouteVisualizer.displayRoutes true
param *.visualizer.networkRouteVisualizer.lineShift 0
param *.visualizer.networkRouteVisualizer.packetFilter "\"UDPData*\""
param *.visualizer.physicalLinkVisualizer.packetFilter "\"UDPData*\""
param *.sender.numApps 1
param *.sender.app[0].typename "\"UdpBasicApp\""
param *.sender.app[0].destAddresses "\"receiver\""
param *.sender.app[0].destPort 1000
param *.sender.app[0].sendInterval 1s
param *.sender.app[0].startTime 0s
param *.sender.app[0].messageLength 512Byte
param *.sender.app[0].packetName "\"UDPdata\""
param *.receiver.numApps 1
param *.receiver.app[0].typename "\"UdpSink\""
param *.receiver.app[0].localPort 1000
param **.hasStatus true

vector 0 AODVgrayhole.host[0].wlan[0].radio radioMode:vector ETV
attr interpolationmode sample-hold
attr source radioModeChanged
attr title "Radio mode, vector"
vector 1 AODVgrayhole.host[1].wlan[0].radio radioMode:vector ETV
attr interpolationmode sample-hold
attr source radioModeChanged
attr title "Radio mode, vector"
vector 2 AODVgrayhole.host[2].wlan[0].radio radioMode:vector ETV
attr interpolationmode sample-hold
attr source radioModeChanged
attr title "Radio mode, vector"
vector 3 AODVgrayhole.host[3].wlan[0].radio radioMode:vector ETV
attr interpolationmode sample-hold
attr source radioModeChanged
attr title "Radio mode, vector"
vector 4 AODVgrayhole.host[4].wlan[0].radio radioMode:vector ETV
attr interpolationmode sample-hold
attr source radioModeChanged
attr title "Radio mode, vector"
vector 5 AODVgrayhole.host[5].wlan[0].radio radioMode:vector ETV
attr interpolationmode sample-hold
attr source radioModeChanged
attr title "Radio mode, vector"
vector 6 AODVgrayhole.host[6].wlan[0].radio radioMode:vector ETV
attr interpolationmode sample-hold
attr source radioModeChanged
attr title "Radio mode, vector"
vector 7 AODVgrayhole.host[7].wlan[0].radio radioMode:vector ETV
attr interpolationmode sample-hold
attr source radioModeChanged
attr title "Radio mode, vector"
vector 8 AODVgrayhole.host[8].wlan[0].radio radioMode:vector ETV
attr interpolationmode sample-hold
attr source radioModeChanged
attr title "Radio mode, vector"
vector 9 AODVgrayhole.host[9].wlan[0].radio radioMode:vector ETV
attr interpolationmode sample-hold
attr source radioModeChanged
attr title "Radio mode, vector"
vector 10 AODVgrayhole.host[10].wlan[0].radio radioMode:vector ETV
attr interpolationmode sample-hold
attr source radioModeChanged
attr title "Radio mode, vector"
vector 11 AODVgrayhole.host[11].wlan[0].radio radioMode:vector ETV
attr interpolationmode sample-hold
attr source radioModeChanged
attr title "Radio mode, vector"
vector 12 AODVgrayhole.host[12].wlan[0].radio radioMode:vector ETV
attr interpolationmode sample-hold
attr source radioModeChanged
attr title "Radio mode, vector"
vector 13 AODVgrayhole.host[13].wlan[0].radio radioMode:vector ETV
attr interpolationmode sample-hold
attr source radioModeChanged
attr title "Radio mode, vector"
vector 14 AODVgrayhole.host[14].wlan[0].radio radioMode:vector ETV
attr interpolationmode sample-hold
attr source radioModeChanged
attr title "Radio mode, vector"
vector 15 AODVgrayhole.host[15].wlan[0].radio radioMode:vector ETV
attr interpolationmode sample-hold
attr source radioModeChanged
attr title "Radio mode, vector"
vector 16 AODVgrayhole.host[16].wlan[0].radio radioMode:vector ETV
attr interpolationmode sample-hold
attr source radioModeChanged
attr title "Radio mode, vector"
vector 17 AODVgrayhole.host[17].wlan[0].radio radioMode:vector ETV
attr interpolationmode sample-hold
attr source radioModeChanged
attr title "Radio mode, vector"
vector 18 AODVgrayhole.sender.wlan[0].radio radioMode:vector ETV
attr interpolationmode sample-hold
attr source radioModeChanged
attr title "Radio mode, vector"
vector 19 AODVgrayhole.receiver.wlan[0].radio radioMode:vector ETV
attr interpolationmode sample-hold
attr source radioModeChanged
attr title "Radio mode, vector"
vector 20 AODVgrayhole.ntu_Grayholer.wlan[0].radio radioMode:vector ETV
attr interpolationmode sample-hold
attr source radioModeChanged
attr title "Radio mode, vector"
vector 21 AODVgrayhole.host[0].wlan[0].radio receptionState:vector ETV
attr interpolationmode sample-hold
attr source receptionStateChanged
attr title "Radio reception state, vector"
vector 22 AODVgrayhole.host[0].wlan[0].radio transmissionState:vector ETV
attr interpolationmode sample-hold
attr source transmissionStateChanged
attr title "Radio transmission state, vector"
vector 23 AODVgrayhole.host[1].wlan[0].radio receptionState:vector ETV
attr interpolationmode sample-hold
attr source receptionStateChanged
attr title "Radio reception state, vector"
vector 24 AODVgrayhole.host[1].wlan[0].radio transmissionState:vector ETV
attr interpolationmode sample-hold
attr source transmissionStateChanged
attr title "Radio transmission state, vector"
vector 25 AODVgrayhole.host[2].wlan[0].radio receptionState:vector ETV
attr interpolationmode sample-hold
attr source receptionStateChanged
attr title "Radio reception state, vector"
vector 26 AODVgrayhole.host[2].wlan[0].radio transmissionState:vector ETV
attr interpolationmode sample-hold
attr source transmissionStateChanged
attr title "Radio transmission state, vector"
vector 27 AODVgrayhole.host[3].wlan[0].radio receptionState:vector ETV
attr interpolationmode sample-hold
attr source receptionStateChanged
attr title "Radio reception state, vector"
vector 28 AODVgrayhole.host[3].wlan[0].radio transmissionState:vector ETV
attr interpolationmode sample-hold
attr source transmissionStateChanged
attr title "Radio transmission state, vector"
vector 29 AODVgrayhole.host[4].wlan[0].radio receptionState:vector ETV
attr interpolationmode sample-hold
attr source receptionStateChanged
attr title "Radio reception state, vector"
vector 30 AODVgrayhole.host[4].wlan[0].radio transmissionState:vector ETV
attr interpolationmode sample-hold
attr source transmissionStateChanged
attr title "Radio transmission state, vector"
vector 31 AODVgrayhole.host[5].wlan[0].radio receptionState:vector ETV
attr interpolationmode sample-hold
attr source receptionStateChanged
attr title "Radio reception state, vector"
vector 32 AODVgrayhole.host[5].wlan[0].radio transmissionState:vector ETV
attr interpolationmode sample-hold
attr source transmissionStateChanged
attr title "Radio transmission state, vector"
vector 33 AODVgrayhole.host[6].wlan[0].radio receptionState:vector ETV
attr interpolationmode sample-hold
attr source receptionStateChanged
attr title "Radio reception state, vector"
vector 34 AODVgrayhole.host[6].wlan[0].radio transmissionState:vector ETV
attr interpolationmode sample-hold
attr source transmissionStateChanged
attr title "Radio transmission state, vector"
vector 35 AODVgrayhole.host[7].wlan[0].radio receptionState:vector ETV
attr interpolationmode sample-hold
attr source receptionStateChanged
attr title "Radio reception state, vector"
vector 36 AODVgrayhole.host[7].wlan[0].radio transmissionState:vector ETV
attr interpolationmode sample-hold
attr source transmissionStateChanged
attr title "Radio transmission state, vector"
vector 37 AODVgrayhole.host[8].wlan[0].radio receptionState:vector ETV
attr interpolationmode sample-hold
attr source receptionStateChanged
attr title "Radio reception state, vector"
vector 38 AODVgrayhole.host[8].wlan[0].radio transmissionState:vector ETV
attr interpolationmode sample-hold
attr source transmissionStateChanged
attr title "Radio transmission state, vector"
vector 39 AODVgrayhole.host[9].wlan[0].radio receptionState:vector ETV
attr interpolationmode sample-hold
attr source receptionStateChanged
attr title "Radio reception state, vector"
vector 40 AODVgrayhole.host[9].wlan[0].radio transmissionState:vector ETV
attr interpolationmode sample-hold
attr source transmissionStateChanged
attr title "Radio transmission state, vector"
vector 41 AODVgrayhole.host[10].wlan[0].radio receptionState:vector ETV
attr interpolationmode sample-hold
attr source receptionStateChanged
attr title "Radio reception state, vector"
vector 42 AODVgrayhole.host[10].wlan[0].radio transmissionState:vector ETV
attr interpolationmode sample-hold
attr source transmissionStateChanged
attr title "Radio transmission state, vector"
vector 43 AODVgrayhole.host[11].wlan[0].radio receptionState:vector ETV
attr interpolationmode sample-hold
attr source receptionStateChanged
attr title "Radio reception state, vector"
vector 44 AODVgrayhole.host[11].wlan[0].radio transmissionState:vector ETV
attr interpolationmode sample-hold
attr source transmissionStateChanged
attr title "Radio transmission state, vector"
vector 45 AODVgrayhole.host[12].wlan[0].radio receptionState:vector ETV
attr interpolationmode sample-hold
attr source receptionStateChanged
attr title "Radio reception state, vector"
vector 46 AODVgrayhole.host[12].wlan[0].radio transmissionState:vector ETV
attr interpolationmode sample-hold
attr source transmissionStateChanged
attr title "Radio transmission state, vector"
vector 47 AODVgrayhole.host[13].wlan[0].radio receptionState:vector ETV
attr interpolationmode sample-hold
attr source receptionStateChanged
attr title "Radio reception state, vector"
vector 48 AODVgrayhole.host[13].wlan[0].radio transmissionState:vector ETV
attr interpolationmode sample-hold
attr source transmissionStateChanged
attr title "Radio transmission state, vector"
vector 49 AODVgrayhole.host[14].wlan[0].radio receptionState:vector ETV
attr interpolationmode sample-hold
attr source receptionStateChanged
attr title "Radio reception state, vector"
vector 50 AODVgrayhole.host[14].wlan[0].radio transmissionState:vector ETV
attr interpolationmode sample-hold
attr source transmissionStateChanged
attr title "Radio transmission state, vector"
vector 51 AODVgrayhole.host[15].wlan[0].radio receptionState:vector ETV
attr interpolationmode sample-hold
attr source receptionStateChanged
attr title "Radio reception state, vector"
vector 52 AODVgrayhole.host[15].wlan[0].radio transmissionState:vector ETV
attr interpolationmode sample-hold
attr source transmissionStateChanged
attr title "Radio transmission state, vector"
vector 53 AODVgrayhole.host[16].wlan[0].radio receptionState:vector ETV
attr interpolationmode sample-hold
attr source receptionStateChanged
attr title "Radio reception state, vector"
vector 54 AODVgrayhole.host[16].wlan[0].radio transmissionState:vector ETV
attr interpolationmode sample-hold
attr source transmissionStateChanged
attr title "Radio transmission state, vector"
vector 55 AODVgrayhole.host[17].wlan[0].radio receptionState:vector ETV
attr interpolationmode sample-hold
attr source receptionStateChanged
attr title "Radio reception state, vector"
vector 56 AODVgrayhole.host[17].wlan[0].radio transmissionState:vector ETV
attr interpolationmode sample-hold
attr source transmissionStateChanged
attr title "Radio transmission state, vector"
vector 57 AODVgrayhole.sender.wlan[0].radio receptionState:vector ETV
attr interpolationmode sample-hold
attr source receptionStateChanged
attr title "Radio reception state, vector"
vector 58 AODVgrayhole.sender.wlan[0].radio transmissionState:vector ETV
attr interpolationmode sample-hold
attr source transmissionStateChanged
attr title "Radio transmission state, vector"
vector 59 AODVgrayhole.receiver.wlan[0].radio receptionState:vector ETV
attr interpolationmode sample-hold
attr source receptionStateChanged
attr title "Radio reception state, vector"
vector 60 AODVgrayhole.receiver.wlan[0].radio transmissionState:vector ETV
attr interpolationmode sample-hold
attr source transmissionStateChanged
attr title "Radio transmission state, vector"
vector 61 AODVgrayhole.ntu_Grayholer.wlan[0].radio receptionState:vector ETV
attr interpolationmode sample-hold
attr source receptionStateChanged
attr title "Radio reception state, vector"
vector 62 AODVgrayhole.ntu_Grayholer.wlan[0].radio transmissionState:vector ETV
attr interpolationmode sample-hold
attr source transmissionStateChanged
attr title "Radio transmission state, vector"
vector 63 AODVgrayhole.sender.app[0] packetSent:vector(packetBytes) ETV
attr interpolationmode none
attr source packetSent
attr title "packets sent, vector(packetBytes)"
vector 64 AODVgrayhole.sender.udp packetSent:vector(packetBytes) ETV
attr interpolationmode none
attr source packetSent
attr title "packets sent, vector(packetBytes)"
vector 65 AODVgrayhole.sender.wlan[0].mac rcvdPkFromHl:vector(packetBytes) ETV
attr interpolationmode none
attr source packetReceivedFromUpper
attr title "packets received from higher layer, vector(packetBytes)"
vector 66 AODVgrayhole.sender.wlan[0].mac.queue packetPushed:vector(packetBytes) ETV
attr interpolationmode none
attr title "packet pushed, vector(packetBytes)"
vector 67 AODVgrayhole.sender.wlan[0].mac.queue queueLength:vector ETV
attr interpolationmode sample-hold
attr source "count(packetPushed) - count(packetPopped) - count(packetRemoved) - count(packetDropped)"
attr title "queue length, vector"
vector 68 AODVgrayhole.sender.wlan[0].mac.queue packetPopped:vector(packetBytes) ETV
attr interpolationmode none
attr title "packet popped, vector(packetBytes)"
vector 69 AODVgrayhole.sender.wlan[0].mac.queue queueingTime:vector ETV
attr interpolationmode none
attr source queueingTime(packetPopped)
attr title "queueing times, vector"
attr unit s
vector 70 AODVgrayhole.sender.wlan[0].mac sentDownPk:vector(packetBytes) ETV
attr interpolationmode none
attr source packetSentToLower
attr title "packets sent to lower layer, vector(packetBytes)"
vector 71 AODVgrayhole.host[8].wlan[0].mac rcvdPkFromLl:vector(packetBytes) ETV
attr interpolationmode none
attr source packetReceivedFromLower
attr title "packets received from lower layer, vector(packetBytes)"
vector 72 AODVgrayhole.host[8].wlan[0].mac passedUpPk:vector(packetBytes) ETV
attr interpolationmode none
attr source packetSentToUpper
attr title "packets passed to higher layer, vector(packetBytes)"
vector 73 AODVgrayhole.host[8].udp packetReceived:vector(packetBytes) ETV
attr interpolationmode none
attr source packetReceived
attr title "packets received, vector(packetBytes)"
vector 74 AODVgrayhole.host[8].udp passedUpPk:vector(count) ETV
attr interpolationmode none
attr source packetSentToUpper
attr title "packets passed up, vector(count)"
vector 75 AODVgrayhole.host[8].udp packetSent:vector(packetBytes) ETV
attr interpolationmode none
attr source packetSent
attr title "packets sent, vector(packetBytes)"
vector 76 AODVgrayhole.host[8].wlan[0].mac rcvdPkFromHl:vector(packetBytes) ETV
attr interpolationmode none
attr source packetReceivedFromUpper
attr title "packets received from higher layer, vector(packetBytes)"
vector 77 AODVgrayhole.host[8].wlan[0].mac.queue packetPushed:vector(packetBytes) ETV
attr interpolationmode none
attr title "packet pushed, vector(packetBytes)"
vector 78 AODVgrayhole.host[8].wlan[0].mac.queue queueLength:vector ETV
attr interpolationmode sample-hold
attr source "count(packetPushed) - count(packetPopped) - count(packetRemoved) - count(packetDropped)"
attr title "queue length, vector"
vector 79 AODVgrayhole.host[8].wlan[0].mac.queue packetPopped:vector(packetBytes) ETV
attr interpolationmode none
attr title "packet popped, vector(packetBytes)"
vector 80 AODVgrayhole.host[8].wlan[0].mac.queue queueingTime:vector ETV
attr interpolationmode none
attr source queueingTime(packetPopped)
attr title "queueing times, vector"
attr unit s
vector 81 AODVgrayhole.host[8].wlan[0].mac sentDownPk:vector(packetBytes) ETV
attr interpolationmode none
attr source packetSentToLower
attr title "packets sent to lower layer, vector(packetBytes)"
vector 82 AODVgrayhole.host[16].wlan[0].mac rcvdPkFromLl:vector(packetBytes) ETV
attr interpolationmode none
attr source packetReceivedFromLower
attr title "packets received from lower layer, vector(packetBytes)"
vector 83 AODVgrayhole.host[16].wlan[0].mac passedUpPk:vector(packetBytes) ETV
attr interpolationmode none
attr source packetSentToUpper
attr title "packets passed to higher layer, vector(packetBytes)"
vector 84 AODVgrayhole.host[16].udp packetReceived:vector(packetBytes) ETV
attr interpolationmode none
attr source packetReceived
attr title "packets received, vector(packetBytes)"
vector 85 AODVgrayhole.host[16].udp passedUpPk:vector(count) ETV
attr interpolationmode none
attr source packetSentToUpper
attr title "packets passed up, vector(count)"
vector 86 AODVgrayhole.host[3].wlan[0].mac rcvdPkFromLl:vector(packetBytes) ETV
attr interpolationmode none
attr source packetReceivedFromLower
attr title "packets received from lower layer, vector(packetBytes)"
vector 87 AODVgrayhole.host[3].wlan[0].mac passedUpPk:vector(packetBytes) ETV
attr interpolationmode none
attr source packetSentToUpper
attr title "packets passed to higher layer, vector(packetBytes)"
vector 88 AODVgrayhole.host[3].udp packetReceived:vector(packetBytes) ETV
attr interpolationmode none
attr source packetReceived
attr title "packets received, vector(packetBytes)"
vector 89 AODVgrayhole.host[3].udp passedUpPk:vector(count) ETV
attr interpolationmode none
attr source packetSentToUpper
attr title "packets passed up, vector(count)"
vector 90 AODVgrayhole.host[4].wlan[0].mac rcvdPkFromLl:vector(packetBytes) ETV
attr interpolationmode none
attr source packetReceivedFromLower
attr title "packets received from lower layer, vector(packetBytes)"
vector 91 AODVgrayhole.host[4].wlan[0].mac passedUpPk:vector(packetBytes) ETV
attr interpolationmode none
attr source packetSentToUpper
attr title "packets passed to higher layer, vector(packetBytes)"
vector 92 AODVgrayhole.host[4].udp packetReceived:vector(packetBytes) ETV
attr interpolationmode none
attr source packetReceived
attr title "packets received, vector(packetBytes)"
vector 93 AODVgrayhole.host[4].udp passedUpPk:vector(count) ETV
attr interpolationmode none
attr source packetSentToUpper
attr title "packets passed up, vector(count)"
vector 94 AODVgrayhole.ntu_Grayholer.wlan[0].mac rcvdPkFromLl:vector(packetBytes) ETV
attr interpolationmode none
attr source packetReceivedFromLower
attr title "packets received from lower layer, vector(packetBytes)"
vector 95 AODVgrayhole.ntu_Grayholer.wlan[0].mac passedUpPk:vector(packetBytes) ETV
attr interpolationmode none
attr source packetSentToUpper
attr title "packets passed to higher layer, vector(packetBytes)"
vector 96 AODVgrayhole.ntu_Grayholer.udp packetReceived:vector(packetBytes) ETV
attr interpolationmode none
attr source packetReceived
attr title "packets received, vector(packetBytes)"
vector 97 AODVgrayhole.ntu_Grayholer.udp passedUpPk:vector(count) ETV
attr interpolationmode none
attr source packetSentToUpper
attr title "packets passed up, vector(count)"
vector 98 AODVgrayhole.ntu_Grayholer.udp packetSent:vector(packetBytes) ETV
attr interpolationmode none
attr source packetSent
attr title "packets sent, vector(packetBytes)"
vector 99 AODVgrayhole.ntu_Grayholer.ipv4.arp arpRequestSent:vector(packetBytes) ETV
attr source arpRequestSent
attr title "ARP request sent, vector(packetBytes)"
vector 100 AODVgrayhole.ntu_Grayholer.wlan[0].mac rcvdPkFromHl:vector(packetBytes) ETV
attr interpolationmode none
attr source packetReceivedFromUpper
attr title "packets received from higher layer, vector(packetBytes)"
vector 101 AODVgrayhole.ntu_Grayholer.wlan[0].mac.queue packetPushed:vector(packetBytes) ETV
attr interpolationmode none
attr title "packet pushed, vector(packetBytes)"
vector 102 AODVgrayhole.ntu_Grayholer.wlan[0].mac.queue queueLength:vector ETV
attr interpolationmode sample-hold
attr source "count(packetPushed) - count(packetPopped) - count(packetRemoved) - count(packetDropped)"
attr title "queue length, vector"
vector 103 AODVgrayhole.ntu_Grayholer.wlan[0].mac.queue packetPopped:vector(packetBytes) ETV
attr interpolationmode none
attr title "packet popped, vector(packetBytes)"
vector 104 AODVgrayhole.ntu_Grayholer.wlan[0].mac.queue queueingTime:vector ETV
attr interpolationmode none
attr source queueingTime(packetPopped)
attr title "queueing times, vector"
attr unit s
vector 105 AODVgrayhole.ntu_Grayholer.wlan[0].mac sentDownPk:vector(packetBytes) ETV
attr interpolationmode none
attr source packetSentToLower
attr title "packets sent to lower layer, vector(packetBytes)"
vector 106 AODVgrayhole.host[5].wlan[0].mac rcvdPkFromLl:vector(packetBytes) ETV
attr interpolationmode none
attr source packetReceivedFromLower
attr title "packets received from lower layer, vector(packetBytes)"
vector 107 AODVgrayhole.host[5].wlan[0].mac passedUpPk:vector(packetBytes) ETV
attr interpolationmode none
attr source packetSentToUpper
attr title "packets passed to higher layer, vector(packetBytes)"
vector 108 AODVgrayhole.host[5].udp packetReceived:vector(packetBytes) ETV
attr interpolationmode none
attr source packetReceived
attr title "packets received, vector(packetBytes)"
vector 109 AODVgrayhole.host[5].udp passedUpPk:vector(count) ETV
attr interpolationmode none
attr source packetSentToUpper
attr title "packets passed up, vector(count)"
vector 110 AODVgrayhole.host[14].wlan[0].mac rcvdPkFromLl:vector(packetBytes) ETV
attr interpolationmode none
attr source packetReceivedFromLower
attr title "packets received from lower layer, vector(packetBytes)"
vector 111 AODVgrayhole.host[14].wlan[0].mac passedUpPk:vector(packetBytes) ETV
attr interpolationmode none
attr source packetSentToUpper
attr title "packets passed to higher layer, vector(packetBytes)"
vector 112 AODVgrayhole.host[14].udp packetReceived:vector(packetBytes) ETV
attr interpolationmode none
attr source packetReceived
attr title "packets received, vector(packetBytes)"
vector 113 AODVgrayhole.host[14].udp passedUpPk:vector(count) ETV
attr interpolationmode none
attr source packetSentToUpper
attr title "packets passed up, vector(count)"
vector 114 AODVgrayhole.host[9].wlan[0].mac rcvdPkFromLl:vector(packetBytes) ETV
attr interpolationmode none
attr source packetReceivedFromLower
attr title "packets received from lower layer, vector(packetBytes)"
vector 115 AODVgrayhole.host[9].wlan[0].mac passedUpPk:vector(packetBytes) ETV
attr interpolationmode none
attr source packetSentToUpper
attr title "packets passed to higher layer, vector(packetBytes)"
vector 116 AODVgrayhole.host[9].udp packetReceived:vector(packetBytes) ETV
attr interpolationmode none
attr source packetReceived
attr title "packets received, vector(packetBytes)"
vector 117 AODVgrayhole.host[9].udp passedUpPk:vector(count) ETV
attr interpolationmode none
attr source packetSentToUpper
attr title "packets passed up, vector(count)"
vector 118 AODVgrayhole.host[7].wlan[0].mac rcvdPkFromLl:vector(packetBytes) ETV
attr interpolationmode none
attr source packetReceivedFromLower
attr title "packets received from lower layer, vector(packetBytes)"
vector 119 AODVgrayhole.host[7].wlan[0].mac passedUpPk:vector(packetBytes) ETV
attr interpolationmode none
attr source packetSentToUpper
attr title "packets passed to higher layer, vector(packetBytes)"
vector 120 AODVgrayhole.host[7].udp packetReceived:vector(packetBytes) ETV
attr interpolationmode none
attr source packetReceived
attr title "packets received, vector(packetBytes)"
vector 121 AODVgrayhole.host[7].udp passedUpPk:vector(count) ETV
attr interpolationmode none
attr source packetSentToUpper
attr title "packets passed up, vector(count)"
vector 122 AODVgrayhole.host[11].wlan[0].mac rcvdPkFromLl:vector(packetBytes) ETV
attr interpolationmode none
attr source packetReceivedFromLower
attr title "packets received from lower layer, vector(packetBytes)"
vector 123 AODVgrayhole.host[11].wlan[0].mac passedUpPk:vector(packetBytes) ETV
attr interpolationmode none
attr source packetSentToUpper
attr title "packets passed to higher layer, vector(packetBytes)"
vector 124 AODVgrayhole.host[11].udp packetReceived:vector(packetBytes) ETV
attr interpolationmode none
attr source packetReceived
attr title "packets received, vector(packetBytes)"
vector 125 AODVgrayhole.host[11].udp passedUpPk:vector(count) ETV
attr interpolationmode none
attr source packetSentToUpper
attr title "packets passed up, vector(count)"
vector 126 AODVgrayhole.host[1].wlan[0].mac rcvdPkFromLl:vector(packetBytes) ETV
attr interpolationmode none
attr source packetReceivedFromLower
attr title "packets received from lower layer, vector(packetBytes)"
vector 127 AODVgrayhole.host[1].wlan[0].mac passedUpPk:vector(packetBytes) ETV
attr interpolationmode none
attr source packetSentToUpper
attr title "packets passed to higher layer, vector(packetBytes)"
vector 128 AODVgrayhole.host[1].udp packetReceived:vector(packetBytes) ETV
attr interpolationmode none
attr source packetReceived
attr title "packets received, vector(packetBytes)"
vector 129 AODVgrayhole.host[1].udp passedUpPk:vector(count) ETV
attr interpolationmode none
attr source packetSentToUpper
attr title "packets passed up, vector(count)"
vector 130 AODVgrayhole.host[2].wlan[0].mac rcvdPkFromLl:vector(packetBytes) ETV
attr interpolationmode none
attr source packetReceivedFromLower
attr title "packets received from lower layer, vector(packetBytes)"
vector 131 AODVgrayhole.host[2].wlan[0].mac passedUpPk:vector(packetBytes) ETV
attr interpolationmode none
attr source packetSentToUpper
attr title "packets passed to higher layer, vector(packetBytes)"
vector 132 AODVgrayhole.host[2].udp packetReceived:vector(packetBytes) ETV
attr interpolationmode none
attr source packetReceived
attr title "packets received, vector(packetBytes)"
vector 133 AODVgrayhole.host[2].udp passedUpPk:vector(count) ETV
attr interpolationmode none
attr source packetSentToUpper
attr title "packets passed up, vector(count)"
vector 134 AODVgrayhole.host[12].wlan[0].mac rcvdPkFromLl:vector(packetBytes) ETV
attr interpolationmode none
attr source packetReceivedFromLower
attr title "packets received from lower layer, vector(packetBytes)"
vector 135 AODVgrayhole.host[12].wlan[0].mac passedUpPk:vector(packetBytes) ETV
attr interpolationmode none
attr source packetSentToUpper
attr title "packets passed to higher layer, vector(packetBytes)"
vector 136 AODVgrayhole.host[12].udp packetReceived:vector(packetBytes) ETV
attr interpolationmode none
attr source packetReceived
attr title "packets received, vector(packetBytes)"
vector 137 AODVgrayhole.host[12].udp passedUpPk:vector(count) ETV
attr interpolationmode none
attr source packetSentToUpper
attr title "packets passed up, vector(count)"
vector 138 AODVgrayhole.host[13].wlan[0].mac rcvdPkFromLl:vector(packetBytes) ETV
attr interpolationmode none
attr source packetReceivedFromLower
attr title "packets received from lower layer, vector(packetBytes)"
vector 139 AODVgrayhole.host[13].wlan[0].mac passedUpPk:vector(packetBytes) ETV
attr interpolationmode none
attr source packetSentToUpper
attr title "packets passed to higher layer, vector(packetBytes)"
vector 140 AODVgrayhole.host[13].udp packetReceived:vector(packetBytes) ETV
attr interpolationmode none
attr source packetReceived
attr title "packets received, vector(packetBytes)"
vector 141 AODVgrayhole.host[13].udp passedUpPk:vector(count) ETV
attr interpolationmode none
attr source packetSentToUpper
attr title "packets passed up, vector(count)"
vector 142 AODVgrayhole.sender.wlan[0].mac rcvdPkFromLl:vector(packetBytes) ETV
attr interpolationmode none
attr source packetReceivedFromLower
attr title "packets received from lower layer, vector(packetBytes)"
vector 143 AODVgrayhole.sender.wlan[0].mac passedUpPk:vector(packetBytes) ETV
attr interpolationmode none
attr source packetSentToUpper
attr title "packets passed to higher layer, vector(packetBytes)"
vector 144 AODVgrayhole.sender.udp packetReceived:vector(packetBytes) ETV
attr interpolationmode none
attr source packetReceived
attr title "packets received, vector(packetBytes)"
vector 145 AODVgrayhole.sender.udp passedUpPk:vector(count) ETV
attr interpolationmode none
attr source packetSentToUpper
attr title "packets passed up, vector(count)"
vector 146 AODVgrayhole.host[8].ipv4.arp arpReplySent:vector(packetBytes) ETV
attr source arpReplySent
attr title "ARP replies sent, vector(packetBytes)"
vector 147 AODVgrayhole.host[16].wlan[0].mac packetDropNotAddressedToUs:vector(packetBytes) ETV
attr interpolationmode none
attr source packetDropReasonIsNotAddressedToUs(packetDropped)
attr title "packet drop: not addressed to us, vector(packetBytes)"
vector 148 AODVgrayhole.host[3].wlan[0].mac packetDropNotAddressedToUs:vector(packetBytes) ETV
attr interpolationmode none
attr source packetDropReasonIsNotAddressedToUs(packetDropped)
attr title "packet drop: not addressed to us, vector(packetBytes)"
vector 149 AODVgrayhole.host[4].wlan[0].mac packetDropNotAddressedToUs:vector(packetBytes) ETV
attr interpolationmode none
attr source packetDropReasonIsNotAddressedToUs(packetDropped)
attr title "packet drop: not addressed to us, vector(packetBytes)"
vector 150 AODVgrayhole.host[5].wlan[0].mac packetDropNotAddressedToUs:vector(packetBytes) ETV
attr interpolationmode none
attr source packetDropReasonIsNotAddressedToUs(packetDropped)
attr title "packet drop: not addressed to us, vector(packetBytes)"
vector 151 AODVgrayhole.host[14].wlan[0].mac packetDropNotAddressedToUs:vector(packetBytes) ETV
attr interpolationmode none
attr source packetDropReasonIsNotAddressedToUs(packetDropped)
attr title "packet drop: not addressed to us, vector(packetBytes)"
vector 152 AODVgrayhole.host[9].wlan[0].mac packetDropNotAddressedToUs:vector(packetBytes) ETV
attr interpolationmode none
attr source packetDropReasonIsNotAddressedToUs(packetDropped)
attr title "packet drop: not addressed to us, vector(packetBytes)"
vector 153 AODVgrayhole.host[7].wlan[0].mac packetDropNotAddressedToUs:vector(packetBytes) ETV
attr interpolationmode none
attr source packetDropReasonIsNotAddressedToUs(packetDropped)
attr title "packet drop: not addressed to us, vector(packetBytes)"
vector 154 AODVgrayhole.host[11].wlan[0].mac packetDropNotAddressedToUs:vector(packetBytes) ETV
attr interpolationmode none
attr source packetDropReasonIsNotAddressedToUs(packetDropped)
attr title "packet drop: not addressed to us, vector(packetBytes)"
vector 155 AODVgrayhole.host[1].wlan[0].mac packetDropNotAddressedToUs:vector(packetBytes) ETV
attr interpolationmode none
attr source packetDropReasonIsNotAddressedToUs(packetDropped)
attr title "packet drop: not addressed to us, vector(packetBytes)"
vector 156 AODVgrayhole.host[2].wlan[0].mac packetDropNotAddressedToUs:vector(packetBytes) ETV
attr interpolationmode none
attr source packetDropReasonIsNotAddressedToUs(packetDropped)
attr title "packet drop: not addressed to us, vector(packetBytes)"
vector 157 AODVgrayhole.host[12].wlan[0].mac packetDropNotAddressedToUs:vector(packetBytes) ETV
attr interpolationmode none
attr source packetDropReasonIsNotAddressedToUs(packetDropped)
attr title "packet drop: not addressed to us, vector(packetBytes)"
vector 158 AODVgrayhole.host[13].wlan[0].mac packetDropNotAddressedToUs:vector(packetBytes) ETV
attr interpolationmode none
attr source packetDropReasonIsNotAddressedToUs(packetDropped)
attr title "packet drop: not addressed to us, vector(packetBytes)"
vector 159 AODVgrayhole.sender.wlan[0].mac packetDropNotAddressedToUs:vector(packetBytes) ETV
attr interpolationmode none
attr source packetDropReasonIsNotAddressedToUs(packetDropped)
attr title "packet drop: not addressed to us, vector(packetBytes)"
vector 160 AODVgrayhole.host[8].ipv4.arp arpRequestSent:vector(packetBytes) ETV
attr source arpRequestSent
attr title "ARP request sent, vector(packetBytes)"
vector 161 AODVgrayhole.sender.ipv4.arp arpReplySent:vector(packetBytes) ETV
attr source arpReplySent
attr title "ARP replies sent, vector(packetBytes)"
vector 162 AODVgrayhole.ntu_Grayholer.wlan[0].mac packetDropNotAddressedToUs:vector(packetBytes) ETV
attr interpolationmode none
attr source packetDropReasonIsNotAddressedToUs(packetDropped)
attr title "packet drop: not addressed to us, vector(packetBytes)"
vector 163 AODVgrayhole.ntu_Grayholer.ipv4.ip rcvdPkt:vector ETV
attr interpolationmode none
attr title "Number of packet received, vector"
vector 164 AODVgrayhole.ntu_Grayholer.ipv4.ip droppings:vector ETV
attr interpolationmode none
attr title "Number of drops, vector"
vector 165 AODVgrayhole.host[16].udp packetSent:vector(packetBytes) ETV
attr interpolationmode none
attr source packetSent
attr title "packets sent, vector(packetBytes)"
vector 166 AODVgrayhole.host[16].wlan[0].mac rcvdPkFromHl:vector(packetBytes) ETV
attr interpolationmode none
attr source packetReceivedFromUpper
attr title "packets received from higher layer, vector(packetBytes)"
vector 167 AODVgrayhole.host[16].wlan[0].mac.queue packetPushed:vector(packetBytes) ETV
attr interpolationmode none
attr title "packet pushed, vector(packetBytes)"
vector 168 AODVgrayhole.host[16].wlan[0].mac.queue queueLength:vector ETV
attr interpolationmode sample-hold
attr source "count(packetPushed) - count(packetPopped) - count(packetRemoved) - count(packetDropped)"
attr title "queue length, vector"
vector 169 AODVgrayhole.host[16].wlan[0].mac.queue packetPopped:vector(packetBytes) ETV
attr interpolationmode none
attr title "packet popped, vector(packetBytes)"
vector 170 AODVgrayhole.host[16].wlan[0].mac.queue queueingTime:vector ETV
attr interpolationmode none
attr source queueingTime(packetPopped)
attr title "queueing times, vector"
attr unit s
vector 171 AODVgrayhole.host[16].wlan[0].mac sentDownPk:vector(packetBytes) ETV
attr interpolationmode none
attr source packetSentToLower
attr title "packets sent to lower layer, vector(packetBytes)"
vector 172 AODVgrayhole.host[7].udp packetSent:vector(packetBytes) ETV
attr interpolationmode none
attr source packetSent
attr title "packets sent, vector(packetBytes)"
vector 173 AODVgrayhole.host[7].wlan[0].mac rcvdPkFromHl:vector(packetBytes) ETV
attr interpolationmode none
attr source packetReceivedFromUpper
attr title "packets received from higher layer, vector(packetBytes)"
vector 174 AODVgrayhole.host[7].wlan[0].mac.queue packetPushed:vector(packetBytes) ETV
attr interpolationmode none
attr title "packet pushed, vector(packetBytes)"
vector 175 AODVgrayhole.host[7].wlan[0].mac.queue queueLength:vector ETV
attr interpolationmode sample-hold
attr source "count(packetPushed) - count(packetPopped) - count(packetRemoved) - count(packetDropped)"
attr title "queue length, vector"
vector 176 AODVgrayhole.host[7].wlan[0].mac.queue packetPopped:vector(packetBytes) ETV
attr interpolationmode none
attr title "packet popped, vector(packetBytes)"
vector 177 AODVgrayhole.host[7].wlan[0].mac.queue queueingTime:vector ETV
attr interpolationmode none
attr source queueingTime(packetPopped)
attr title "queueing times, vector"
attr unit s
vector 178 AODVgrayhole.host[7].wlan[0].mac sentDownPk:vector(packetBytes) ETV
attr interpolationmode none
attr source packetSentToLower
attr title "packets sent to lower layer, vector(packetBytes)"
vector 179 AODVgrayhole.host[5].udp packetSent:vector(packetBytes) ETV
attr interpolationmode none
attr source packetSent
attr title "packets sent, vector(packetBytes)"
vector 180 AODVgrayhole.host[5].wlan[0].mac rcvdPkFromHl:vector(packetBytes) ETV
attr interpolationmode none
attr source packetReceivedFromUpper
attr title "packets received from higher layer, vector(packetBytes)"
vector 181 AODVgrayhole.host[5].wlan[0].mac.queue packetPushed:vector(packetBytes) ETV
attr interpolationmode none
attr title "packet pushed, vector(packetBytes)"
vector 182 AODVgrayhole.host[5].wlan[0].mac.queue queueLength:vector ETV
attr interpolationmode sample-hold
attr source "count(packetPushed) - count(packetPopped) - count(packetRemoved) - count(packetDropped)"
attr title "queue length, vector"
vector 183 AODVgrayhole.host[5].wlan[0].mac.queue packetPopped:vector(packetBytes) ETV
attr interpolationmode none
attr title "packet popped, vector(packetBytes)"
vector 184 AODVgrayhole.host[5].wlan[0].mac.queue queueingTime:vector ETV
attr interpolationmode none
attr source queueingTime(packetPopped)
attr title "queueing times, vector"
attr unit s
vector 185 AODVgrayhole.host[5].wlan[0].mac sentDownPk:vector(packetBytes) ETV
attr interpolationmode none
attr source packetSentToLower
attr title "packets sent to lower layer, vector(packetBytes)"
vector 186 AODVgrayhole.host[1].udp packetSent:vector(packetBytes) ETV
attr interpolationmode none
attr source packetSent
attr title "packets sent, vector(packetBytes)"
vector 187 AODVgrayhole.host[1].wlan[0].mac rcvdPkFromHl:vector(packetBytes) ETV
attr interpolationmode none
attr source packetReceivedFromUpper
attr title "packets received from higher layer, vector(packetBytes)"
vector 188 AODVgrayhole.host[1].wlan[0].mac.queue packetPushed:vector(packetBytes) ETV
attr interpolationmode none
attr title "packet pushed, vector(packetBytes)"
vector 189 AODVgrayhole.host[1].wlan[0].mac.queue queueLength:vector ETV
attr interpolationmode sample-hold
attr source "count(packetPushed) - count(packetPopped) - count(packetRemoved) - count(packetDropped)"
attr title "queue length, vector"
vector 190 AODVgrayhole.host[1].wlan[0].mac.queue packetPopped:vector(packetBytes) ETV
attr interpolationmode none
attr title "packet popped, vector(packetBytes)"
vector 191 AODVgrayhole.host[1].wlan[0].mac.queue queueingTime:vector ETV
attr interpolationmode none
attr source queueingTime(packetPopped)
attr title "queueing times, vector"
attr unit s
vector 192 AODVgrayhole.host[1].wlan[0].mac sentDownPk:vector(packetBytes) ETV
attr interpolationmode none
attr source packetSentToLower
attr title "packets sent to lower layer, vector(packetBytes)"
vector 193 AODVgrayhole.host[3].udp packetSent:vector(packetBytes) ETV
attr interpolationmode none
attr source packetSent
attr title "packets sent, vector(packetBytes)"
vector 194 AODVgrayhole.host[3].wlan[0].mac rcvdPkFromHl:vector(packetBytes) ETV
attr interpolationmode none
attr source packetReceivedFromUpper
attr title "packets received from higher layer, vector(packetBytes)"
vector 195 AODVgrayhole.host[3].wlan[0].mac.queue packetPushed:vector(packetBytes) ETV
attr interpolationmode none
attr title "packet pushed, vector(packetBytes)"
vector 196 AODVgrayhole.host[3].wlan[0].mac.queue queueLength:vector ETV
attr interpolationmode sample-hold
attr source "count(packetPushed) - count(packetPopped) - count(packetRemoved) - count(packetDropped)"
attr title "queue length, vector"
vector 197 AODVgrayhole.host[3].wlan[0].mac.queue packetPopped:vector(packetBytes) ETV
attr interpolationmode none
attr title "packet popped, vector(packetBytes)"
vector 198 AODVgrayhole.host[3].wlan[0].mac.queue queueingTime:vector ETV
attr interpolationmode none
attr source queueingTime(packetPopped)
attr title "queueing times, vector"
attr unit s
vector 199 AODVgrayhole.host[3].wlan[0].mac sentDownPk:vector(packetBytes) ETV
attr interpolationmode none
attr source packetSentToLower
attr title "packets sent to lower layer, vector(packetBytes)"
vector 200 AODVgrayhole.host[11].udp packetSent:vector(packetBytes) ETV
attr interpolationmode none
attr source packetSent
attr title "packets sent, vector(packetBytes)"
vector 201 AODVgrayhole.host[11].wlan[0].mac rcvdPkFromHl:vector(packetBytes) ETV
attr interpolationmode none
attr source packetReceivedFromUpper
attr title "packets received from higher layer, vector(packetBytes)"
vector 202 AODVgrayhole.host[11].wlan[0].mac.queue packetPushed:vector(packetBytes) ETV
attr interpolationmode none
attr title "packet pushed, vector(packetBytes)"
vector 203 AODVgrayhole.host[11].wlan[0].mac.queue queueLength:vector ETV
attr interpolationmode sample-hold
attr source "count(packetPushed) - count(packetPopped) - count(packetRemoved) - count(packetDropped)"
attr title "queue length, vector"
vector 204 AODVgrayhole.host[11].wlan[0].mac.queue packetPopped:vector(packetBytes) ETV
attr interpolationmode none
attr title "packet popped, vector(packetBytes)"
vector 205 AODVgrayhole.host[11].wlan[0].mac.queue queueingTime:vector ETV
attr interpolationmode none
attr source queueingTime(packetPopped)
attr title "queueing times, vector"
attr unit s
vector 206 AODVgrayhole.host[11].wlan[0].mac sentDownPk:vector(packetBytes) ETV
attr interpolationmode none
attr source packetSentToLower
attr title "packets sent to lower layer, vector(packetBytes)"
vector 207 AODVgrayhole.host[0].wlan[0].mac rcvdPkFromLl:vector(packetBytes) ETV
attr interpolationmode none
attr source packetReceivedFromLower
attr title "packets received from lower layer, vector(packetBytes)"
vector 208 AODVgrayhole.host[0].wlan[0].mac passedUpPk:vector(packetBytes) ETV
attr interpolationmode none
attr source packetSentToUpper
attr title "packets passed to higher layer, vector(packetBytes)"
vector 209 AODVgrayhole.host[0].udp packetReceived:vector(packetBytes) ETV
attr interpolationmode none
attr source packetReceived
attr title "packets received, vector(packetBytes)"
vector 210 AODVgrayhole.host[0].udp passedUpPk:vector(count) ETV
attr interpolationmode none
attr source packetSentToUpper
attr title "packets passed up, vector(count)"
vector 211 AODVgrayhole.host[15].wlan[0].mac rcvdPkFromLl:vector(packetBytes) ETV
attr interpolationmode none
attr source packetReceivedFromLower
attr title "packets received from lower layer, vector(packetBytes)"
vector 212 AODVgrayhole.host[15].wlan[0].mac passedUpPk:vector(packetBytes) ETV
attr interpolationmode none
attr source packetSentToUpper
attr title "packets passed to higher layer, vector(packetBytes)"
vector 213 AODVgrayhole.host[15].udp packetReceived:vector(packetBytes) ETV
attr interpolationmode none
attr source packetReceived
attr title "packets received, vector(packetBytes)"
vector 214 AODVgrayhole.host[15].udp passedUpPk:vector(count) ETV
attr interpolationmode none
attr source packetSentToUpper
attr title "packets passed up, vector(count)"
vector 215 AODVgrayhole.host[4].udp packetSent:vector(packetBytes) ETV
attr interpolationmode none
attr source packetSent
attr title "packets sent, vector(packetBytes)"
vector 216 AODVgrayhole.host[4].wlan[0].mac rcvdPkFromHl:vector(packetBytes) ETV
attr interpolationmode none
attr source packetReceivedFromUpper
attr title "packets received from higher layer, vector(packetBytes)"
vector 217 AODVgrayhole.host[4].wlan[0].mac.queue packetPushed:vector(packetBytes) ETV
attr interpolationmode none
attr title "packet pushed, vector(packetBytes)"
vector 218 AODVgrayhole.host[4].wlan[0].mac.queue queueLength:vector ETV
attr interpolationmode sample-hold
attr source "count(packetPushed) - count(packetPopped) - count(packetRemoved) - count(packetDropped)"
attr title "queue length, vector"
vector 219 AODVgrayhole.host[4].wlan[0].mac.queue packetPopped:vector(packetBytes) ETV
attr interpolationmode none
attr title "packet popped, vector(packetBytes)"
vector 220 AODVgrayhole.host[4].wlan[0].mac.queue queueingTime:vector ETV
attr interpolationmode none
attr source queueingTime(packetPopped)
attr title "queueing times, vector"
attr unit s
vector 221 AODVgrayhole.host[4].wlan[0].mac sentDownPk:vector(packetBytes) ETV
attr interpolationmode none
attr source packetSentToLower
attr title "packets sent to lower layer, vector(packetBytes)"
vector 222 AODVgrayhole.host[9].udp packetSent:vector(packetBytes) ETV
attr interpolationmode none
attr source packetSent
attr title "packets sent, vector(packetBytes)"
vector 223 AODVgrayhole.host[9].wlan[0].mac rcvdPkFromHl:vector(packetBytes) ETV
attr interpolationmode none
attr source packetReceivedFromUpper
attr title "packets received from higher layer, vector(packetBytes)"
vector 224 AODVgrayhole.host[9].wlan[0].mac.queue packetPushed:vector(packetBytes) ETV
attr interpolationmode none
attr title "packet pushed, vector(packetBytes)"
vector 225 AODVgrayhole.host[9].wlan[0].mac.queue queueLength:vector ETV
attr interpolationmode sample-hold
attr source "count(packetPushed) - count(packetPopped) - count(packetRemoved) - count(packetDropped)"
attr title "queue length, vector"
vector 226 AODVgrayhole.host[9].wlan[0].mac.queue packetPopped:vector(packetBytes) ETV
attr interpolationmode none
attr title "packet popped, vector(packetBytes)"
vector 227 AODVgrayhole.host[9].wlan[0].mac.queue queueingTime:vector ETV
attr interpolationmode none
attr source queueingTime(packetPopped)
attr title "queueing times, vector"
attr unit s
vector 228 AODVgrayhole.host[9].wlan[0].mac sentDownPk:vector(packetBytes) ETV
attr interpolationmode none
attr source packetSentToLower
attr title "packets sent to lower layer, vector(packetBytes)"
vector 229 AODVgrayhole.host[14].udp packetSent:vector(packetBytes) ETV
attr interpolationmode none
attr source packetSent
attr title "packets sent, vector(packetBytes)"
vector 230 AODVgrayhole.host[14].wlan[0].mac rcvdPkFromHl:vector(packetBytes) ETV
attr interpolationmode none
attr source packetReceivedFromUpper
attr title "packets received from higher layer, vector(packetBytes)"
vector 231 AODVgrayhole.host[14].wlan[0].mac.queue packetPushed:vector(packetBytes) ETV
attr interpolationmode none
attr title "packet pushed, vector(packetBytes)"
vector 232 AODVgrayhole.host[14].wlan[0].mac.queue queueLength:vector ETV
attr interpolationmode sample-hold
attr source "count(packetPushed) - count(packetPopped) - count(packetRemoved) - count(packetDropped)"
attr title "queue length, vector"
vector 233 AODVgrayhole.host[14].wlan[0].mac.queue packetPopped:vector(packetBytes) ETV
attr interpolationmode none
attr title "packet popped, vector(packetBytes)"
vector 234 AODVgrayhole.host[14].wlan[0].mac.queue queueingTime:vector ETV
attr interpolationmode none
attr source queueingTime(packetPopped)
attr title "queueing times, vector"
attr unit s
vector 235 AODVgrayhole.host[14].wlan[0].mac sentDownPk:vector(packetBytes) ETV
attr interpolationmode none
attr source packetSentToLower
attr title "packets sent to lower layer, vector(packetBytes)"
vector 236 AODVgrayhole.host[0].udp packetSent:vector(packetBytes) ETV
attr interpolationmode none
attr source packetSent
attr title "packets sent, vector(packetBytes)"
vector 237 AODVgrayhole.host[0].wlan[0].mac rcvdPkFromHl:vector(packetBytes) ETV
attr interpolationmode none
attr source packetReceivedFromUpper
attr title "packets received from higher layer, vector(packetBytes)"
vector 238 AODVgrayhole.host[0].wlan[0].mac.queue packetPushed:vector(packetBytes) ETV
attr interpolationmode none
attr title "packet pushed, vector(packetBytes)"
vector 239 AODVgrayhole.host[0].wlan[0].mac.queue queueLength:vector ETV
attr interpolationmode sample-hold
attr source "count(packetPushed) - count(packetPopped) - count(packetRemoved) - count(packetDropped)"
attr title "queue length, vector"
vector 240 AODVgrayhole.host[0].wlan[0].mac.queue packetPopped:vector(packetBytes) ETV
attr interpolationmode none
attr title "packet popped, vector(packetBytes)"
vector 241 AODVgrayhole.host[0].wlan[0].mac.queue queueingTime:vector ETV
attr interpolationmode none
attr source queueingTime(packetPopped)
attr title "queueing times, vector"
attr unit s
vector 242 AODVgrayhole.host[0].wlan[0].mac sentDownPk:vector(packetBytes) ETV
attr interpolationmode none
attr source packetSentToLower
attr title "packets sent to lower layer, vector(packetBytes)"
vector 243 AODVgrayhole.host[2].udp packetSent:vector(packetBytes) ETV
attr interpolationmode none
attr source packetSent
attr title "packets sent, vector(packetBytes)"
vector 244 AODVgrayhole.host[2].wlan[0].mac rcvdPkFromHl:vector(packetBytes) ETV
attr interpolationmode none
attr source packetReceivedFromUpper
attr title "packets received from higher layer, vector(packetBytes)"
vector 245 AODVgrayhole.host[2].wlan[0].mac.queue packetPushed:vector(packetBytes) ETV
attr interpolationmode none
attr title "packet pushed, vector(packetBytes)"
vector 246 AODVgrayhole.host[2].wlan[0].mac.queue queueLength:vector ETV
attr interpolationmode sample-hold
attr source "count(packetPushed) - count(packetPopped) - count(packetRemoved) - count(packetDropped)"
attr title "queue length, vector"
vector 247 AODVgrayhole.host[2].wlan[0].mac.queue packetPopped:vector(packetBytes) ETV
attr interpolationmode none
attr title "packet popped, vector(packetBytes)"
vector 248 AODVgrayhole.host[2].wlan[0].mac.queue queueingTime:vector ETV
attr interpolationmode none
attr source queueingTime(packetPopped)
attr title "queueing times, vector"
attr unit s
vector 249 AODVgrayhole.host[2].wlan[0].mac sentDownPk:vector(packetBytes) ETV
attr interpolationmode none
attr source packetSentToLower
attr title "packets sent to lower layer, vector(packetBytes)"
vector 250 AODVgrayhole.host[6].wlan[0].mac rcvdPkFromLl:vector(packetBytes) ETV
attr interpolationmode none
attr source packetReceivedFromLower
attr title "packets received from lower layer, vector(packetBytes)"
vector 251 AODVgrayhole.host[6].wlan[0].mac passedUpPk:vector(packetBytes) ETV
attr interpolationmode none
attr source packetSentToUpper
attr title "packets passed to higher layer, vector(packetBytes)"
vector 252 AODVgrayhole.host[6].udp packetReceived:vector(packetBytes) ETV
attr interpolationmode none
attr source packetReceived
attr title "packets received, vector(packetBytes)"
vector 253 AODVgrayhole.host[6].udp passedUpPk:vector(count) ETV
attr interpolationmode none
attr source packetSentToUpper
attr title "packets passed up, vector(count)"
vector 254 AODVgrayhole.receiver.wlan[0].mac rcvdPkFromLl:vector(packetBytes) ETV
attr interpolationmode none
attr source packetReceivedFromLower
attr title "packets received from lower layer, vector(packetBytes)"
vector 255 AODVgrayhole.receiver.wlan[0].mac passedUpPk:vector(packetBytes) ETV
attr interpolationmode none
attr source packetSentToUpper
attr title "packets passed to higher layer, vector(packetBytes)"
vector 256 AODVgrayhole.receiver.udp packetReceived:vector(packetBytes) ETV
attr interpolationmode none
attr source packetReceived
attr title "packets received, vector(packetBytes)"
vector 257 AODVgrayhole.receiver.udp passedUpPk:vector(count) ETV
attr interpolationmode none
attr source packetSentToUpper
attr title "packets passed up, vector(count)"
vector 258 AODVgrayhole.receiver.udp packetSent:vector(packetBytes) ETV
attr interpolationmode none
attr source packetSent
attr title "packets sent, vector(packetBytes)"
vector 259 AODVgrayhole.receiver.ipv4.arp arpRequestSent:vector(packetBytes) ETV
attr source arpRequestSent
attr title "ARP request sent, vector(packetBytes)"
vector 260 AODVgrayhole.receiver.wlan[0].mac rcvdPkFromHl:vector(packetBytes) ETV
attr interpolationmode none
attr source packetReceivedFromUpper
attr title "packets received from higher layer, vector(packetBytes)"
vector 261 AODVgrayhole.receiver.wlan[0].mac.queue packetPushed:vector(packetBytes) ETV
attr interpolationmode none
attr title "packet pushed, vector(packetBytes)"
vector 262 AODVgrayhole.receiver.wlan[0].mac.queue queueLength:vector ETV
attr interpolationmode sample-hold
attr source "count(packetPushed) - count(packetPopped) - count(packetRemoved) - count(packetDropped)"
attr title "queue length, vector"
vector 263 AODVgrayhole.receiver.wlan[0].mac.queue packetPopped:vector(packetBytes) ETV
attr interpolationmode none
attr title "packet popped, vector(packetBytes)"
vector 264 AODVgrayhole.receiver.wlan[0].mac.queue queueingTime:vector ETV
attr interpolationmode none
attr source queueingTime(packetPopped)
attr title "queueing times, vector"
attr unit s
vector 265 AODVgrayhole.receiver.wlan[0].mac sentDownPk:vector(packetBytes) ETV
attr interpolationmode none
attr source packetSentToLower
attr title "packets sent to lower layer, vector(packetBytes)"
vector 266 AODVgrayhole.host[10].wlan[0].mac rcvdPkFromLl:vector(packetBytes) ETV
attr interpolationmode none
attr source packetReceivedFromLower
attr title "packets received from lower layer, vector(packetBytes)"
vector 267 AODVgrayhole.host[10].wlan[0].mac passedUpPk:vector(packetBytes) ETV
attr interpolationmode none
attr source packetSentToUpper
attr title "packets passed to higher layer, vector(packetBytes)"
vector 268 AODVgrayhole.host[10].udp packetReceived:vector(packetBytes) ETV
attr interpolationmode none
attr source packetReceived
attr title "packets received, vector(packetBytes)"
vector 269 AODVgrayhole.host[10].udp passedUpPk:vector(count) ETV
attr interpolationmode none
attr source packetSentToUpper
attr title "packets passed up, vector(count)"
vector 270 AODVgrayhole.host[17].wlan[0].mac rcvdPkFromLl:vector(packetBytes) ETV
attr interpolationmode none
attr source packetReceivedFromLower
attr title "packets received from lower layer, vector(packetBytes)"
vector 271 AODVgrayhole.host[17].wlan[0].mac passedUpPk:vector(packetBytes) ETV
attr interpolationmode none
attr source packetSentToUpper
attr title "packets passed to higher layer, vector(packetBytes)"
vector 272 AODVgrayhole.host[17].udp packetReceived:vector(packetBytes) ETV
attr interpolationmode none
attr source packetReceived
attr title "packets received, vector(packetBytes)"
vector 273 AODVgrayhole.host[17].udp passedUpPk:vector(count) ETV
attr interpolationmode none
attr source packetSentToUpper
attr title "packets passed up, vector(count)"
vector 274 AODVgrayhole.host[0].ipv4.arp arpReplySent:vector(packetBytes) ETV
attr source arpReplySent
attr title "ARP replies sent, vector(packetBytes)"
vector 275 AODVgrayhole.host[6].wlan[0].mac packetDropNotAddressedToUs:vector(packetBytes) ETV
attr interpolationmode none
attr source packetDropReasonIsNotAddressedToUs(packetDropped)
attr title "packet drop: not addressed to us, vector(packetBytes)"
vector 276 AODVgrayhole.host[15].wlan[0].mac packetDropNotAddressedToUs:vector(packetBytes) ETV
attr interpolationmode none
attr source packetDropReasonIsNotAddressedToUs(packetDropped)
attr title "packet drop: not addressed to us, vector(packetBytes)"
vector 277 AODVgrayhole.host[10].wlan[0].mac packetDropNotAddressedToUs:vector(packetBytes) ETV
attr interpolationmode none
attr source packetDropReasonIsNotAddressedToUs(packetDropped)
attr title "packet drop: not addressed to us, vector(packetBytes)"
vector 278 AODVgrayhole.host[17].wlan[0].mac packetDropNotAddressedToUs:vector(packetBytes) ETV
attr interpolationmode none
attr source packetDropReasonIsNotAddressedToUs(packetDropped)
attr title "packet drop: not addressed to us, vector(packetBytes)"
vector 279 AODVgrayhole.host[17].udp packetSent:vector(packetBytes) ETV
attr interpolationmode none
attr source packetSent
attr title "packets sent, vector(packetBytes)"
vector 280 AODVgrayhole.host[17].wlan[0].mac rcvdPkFromHl:vector(packetBytes) ETV
attr interpolationmode none
attr source packetReceivedFromUpper
attr title "packets received from higher layer, vector(packetBytes)"
vector 281 AODVgrayhole.host[17].wlan[0].mac.queue packetPushed:vector(packetBytes) ETV
attr interpolationmode none
attr title "packet pushed, vector(packetBytes)"
vector 282 AODVgrayhole.host[17].wlan[0].mac.queue queueLength:vector ETV
attr interpolationmode sample-hold
attr source "count(packetPushed) - count(packetPopped) - count(packetRemoved) - count(packetDropped)"
attr title "queue length, vector"
vector 283 AODVgrayhole.host[17].wlan[0].mac.queue packetPopped:vector(packetBytes) ETV
attr interpolationmode none
attr title "packet popped, vector(packetBytes)"
vector 284 AODVgrayhole.host[17].wlan[0].mac.queue queueingTime:vector ETV
attr interpolationmode none
attr source queueingTime(packetPopped)
attr title "queueing times, vector"
attr unit s
vector 285 AODVgrayhole.host[17].wlan[0].mac sentDownPk:vector(packetBytes) ETV
attr interpolationmode none
attr source packetSentToLower
attr title "packets sent to lower layer, vector(packetBytes)"
vector 286 AODVgrayhole.host[6].udp packetSent:vector(packetBytes) ETV
attr interpolationmode none
attr source packetSent
attr title "packets sent, vector(packetBytes)"
vector 287 AODVgrayhole.host[6].wlan[0].mac rcvdPkFromHl:vector(packetBytes) ETV
attr interpolationmode none
attr source packetReceivedFromUpper
attr title "packets received from higher layer, vector(packetBytes)"
vector 288 AODVgrayhole.host[6].wlan[0].mac.queue packetPushed:vector(packetBytes) ETV
attr interpolationmode none
attr title "packet pushed, vector(packetBytes)"
vector 289 AODVgrayhole.host[6].wlan[0].mac.queue queueLength:vector ETV
attr interpolationmode sample-hold
attr source "count(packetPushed) - count(packetPopped) - count(packetRemoved) - count(packetDropped)"
attr title "queue length, vector"
vector 290 AODVgrayhole.host[6].wlan[0].mac.queue packetPopped:vector(packetBytes) ETV
attr interpolationmode none
attr title "packet popped, vector(packetBytes)"
vector 291 AODVgrayhole.host[6].wlan[0].mac.queue queueingTime:vector ETV
attr interpolationmode none
attr source queueingTime(packetPopped)
attr title "queueing times, vector"
attr unit s
vector 292 AODVgrayhole.host[6].wlan[0].mac sentDownPk:vector(packetBytes) ETV
attr interpolationmode none
attr source packetSentToLower
attr title "packets sent to lower layer, vector(packetBytes)"
vector 293 AODVgrayhole.host[15].udp packetSent:vector(packetBytes) ETV
attr interpolationmode none
attr source packetSent
attr title "packets sent, vector(packetBytes)"
vector 294 AODVgrayhole.host[15].wlan[0].mac rcvdPkFromHl:vector(packetBytes) ETV
attr interpolationmode none
attr source packetReceivedFromUpper
attr title "packets received from higher layer, vector(packetBytes)"
vector 295 AODVgrayhole.host[15].wlan[0].mac.queue packetPushed:vector(packetBytes) ETV
attr interpolationmode none
attr title "packet pushed, vector(packetBytes)"
vector 296 AODVgrayhole.host[15].wlan[0].mac.queue queueLength:vector ETV
attr interpolationmode sample-hold
attr source "count(packetPushed) - count(packetPopped) - count(packetRemoved) - count(packetDropped)"
attr title "queue length, vector"
vector 297 AODVgrayhole.host[15].wlan[0].mac.queue packetPopped:vector(packetBytes) ETV
attr interpolationmode none
attr title "packet popped, vector(packetBytes)"
vector 298 AODVgrayhole.host[15].wlan[0].mac.queue queueingTime:vector ETV
attr interpolationmode none
attr source queueingTime(packetPopped)
attr title "queueing times, vector"
attr unit s
vector 299 AODVgrayhole.host[15].wlan[0].mac sentDownPk:vector(packetBytes) ETV
attr interpolationmode none
attr source packetSentToLower
attr title "packets sent to lower layer, vector(packetBytes)"
vector 300 AODVgrayhole.host[12].udp packetSent:vector(packetBytes) ETV
attr interpolationmode none
attr source packetSent
attr title "packets sent, vector(packetBytes)"
vector 301 AODVgrayhole.host[12].wlan[0].mac rcvdPkFromHl:vector(packetBytes) ETV
attr interpolationmode none
attr source packetReceivedFromUpper
attr title "packets received from higher layer, vector(packetBytes)"
vector 302 AODVgrayhole.host[12].wlan[0].mac.queue packetPushed:vector(packetBytes) ETV
attr interpolationmode none
attr title "packet pushed, vector(packetBytes)"
vector 303 AODVgrayhole.host[12].wlan[0].mac.queue queueLength:vector ETV
attr interpolationmode sample-hold
attr source "count(packetPushed) - count(packetPopped) - count(packetRemoved) - count(packetDropped)"
attr title "queue length, vector"
vector 304 AODVgrayhole.host[12].wlan[0].mac.queue packetPopped:vector(packetBytes) ETV
attr interpolationmode none
attr title "packet popped, vector(packetBytes)"
vector 305 AODVgrayhole.host[12].wlan[0].mac.queue queueingTime:vector ETV
attr interpolationmode none
attr source queueingTime(packetPopped)
attr title "queueing times, vector"
attr unit s
vector 306 AODVgrayhole.host[12].wlan[0].mac sentDownPk:vector(packetBytes) ETV
attr interpolationmode none
attr source packetSentToLower
attr title "packets sent to lower layer, vector(packetBytes)"
vector 307 AODVgrayhole.host[0].ipv4.arp arpRequestSent:vector(packetBytes) ETV
attr source arpRequestSent
attr title "ARP request sent, vector(packetBytes)"
vector 308 AODVgrayhole.host[1].ipv4.arp arpReplySent:vector(packetBytes) ETV
attr source arpReplySent
attr title "ARP replies sent, vector(packetBytes)"
vector 309 AODVgrayhole.host[8].wlan[0].mac packetDropNotAddressedToUs:vector(packetBytes) ETV
attr interpolationmode none
attr source packetDropReasonIsNotAddressedToUs(packetDropped)
attr title "packet drop: not addressed to us, vector(packetBytes)"
vector 310 AODVgrayhole.receiver.wlan[0].mac packetDropNotAddressedToUs:vector(packetBytes) ETV
attr interpolationmode none
attr source packetDropReasonIsNotAddressedToUs(packetDropped)
attr title "packet drop: not addressed to us, vector(packetBytes)"
vector 311 AODVgrayhole.host[13].udp packetSent:vector(packetBytes) ETV
attr interpolationmode none
attr source packetSent
attr title "packets sent, vector(packetBytes)"
vector 312 AODVgrayhole.host[13].wlan[0].mac rcvdPkFromHl:vector(packetBytes) ETV
attr interpolationmode none
attr source packetReceivedFromUpper
attr title "packets received from higher layer, vector(packetBytes)"
vector 313 AODVgrayhole.host[13].wlan[0].mac.queue packetPushed:vector(packetBytes) ETV
attr interpolationmode none
attr title "packet pushed, vector(packetBytes)"
vector 314 AODVgrayhole.host[13].wlan[0].mac.queue queueLength:vector ETV
attr interpolationmode sample-hold
attr source "count(packetPushed) - count(packetPopped) - count(packetRemoved) - count(packetDropped)"
attr title "queue length, vector"
vector 315 AODVgrayhole.host[13].wlan[0].mac.queue packetPopped:vector(packetBytes) ETV
attr interpolationmode none
attr title "packet popped, vector(packetBytes)"
vector 316 AODVgrayhole.host[13].wlan[0].mac.queue queueingTime:vector ETV
attr interpolationmode none
attr source queueingTime(packetPopped)
attr title "queueing times, vector"
attr unit s
vector 317 AODVgrayhole.host[13].wlan[0].mac sentDownPk:vector(packetBytes) ETV
attr interpolationmode none
attr source packetSentToLower
attr title "packets sent to lower layer, vector(packetBytes)"
vector 318 AODVgrayhole.host[10].udp packetSent:vector(packetBytes) ETV
attr interpolationmode none
attr source packetSent
attr title "packets sent, vector(packetBytes)"
vector 319 AODVgrayhole.host[10].wlan[0].mac rcvdPkFromHl:vector(packetBytes) ETV
attr interpolationmode none
attr source packetReceivedFromUpper
attr title "packets received from higher layer, vector(packetBytes)"
vector 320 AODVgrayhole.host[10].wlan[0].mac.queue packetPushed:vector(packetBytes) ETV
attr interpolationmode none
attr title "packet pushed, vector(packetBytes)"
vector 321 AODVgrayhole.host[10].wlan[0].mac.queue queueLength:vector ETV
attr interpolationmode sample-hold
attr source "count(packetPushed) - count(packetPopped) - count(packetRemoved) - count(packetDropped)"
attr title "queue length, vector"
vector 322 AODVgrayhole.host[10].wlan[0].mac.queue packetPopped:vector(packetBytes) ETV
attr interpolationmode none
attr title "packet popped, vector(packetBytes)"
vector 323 AODVgrayhole.host[10].wlan[0].mac.queue queueingTime:vector ETV
attr interpolationmode none
attr source queueingTime(packetPopped)
attr title "queueing times, vector"
attr unit s
vector 324 AODVgrayhole.host[10].wlan[0].mac sentDownPk:vector(packetBytes) ETV
attr interpolationmode none
attr source packetSentToLower
attr title "packets sent to lower layer, vector(packetBytes)"
vector 325 AODVgrayhole.host[1].ipv4.arp arpRequestSent:vector(packetBytes) ETV
attr source arpRequestSent
attr title "ARP request sent, vector(packetBytes)"
vector 326 AODVgrayhole.ntu_Grayholer.ipv4.arp arpReplySent:vector(packetBytes) ETV
attr source arpReplySent
attr title "ARP replies sent, vector(packetBytes)"
vector 327 AODVgrayhole.host[0].wlan[0].mac packetDropNotAddressedToUs:vector(packetBytes) ETV
attr interpolationmode none
attr source packetDropReasonIsNotAddressedToUs(packetDropped)
attr title "packet drop: not addressed to us, vector(packetBytes)"
vector 328 AODVgrayhole.receiver.app[0] packetReceived:vector(packetBytes) ETV
attr interpolationmode none
attr source packetReceived
attr title "packets received, vector(packetBytes)"
vector 329 AODVgrayhole.receiver.app[0] throughput:vector ETV
attr source throughput(packetReceived)
attr title "throughput, vector"
attr unit bps
vector 330 AODVgrayhole.receiver.app[0] endToEndDelay:vector ETV
attr interpolationmode none
attr source dataAge(packetReceived)
attr title "end-to-end delay, vector"
attr unit s
vector 331 AODVgrayhole.receiver.app[0] rcvdPkSeqNo:vector ETV
attr interpolationmode none
attr source appPkSeqNo(packetReceived)
attr title "received packet sequence number, vector"
vector 332 AODVgrayhole.host[15].ipv4.arp arpReplySent:vector(packetBytes) ETV
attr source arpReplySent
attr title "ARP replies sent, vector(packetBytes)"
vector 333 AODVgrayhole.sender.ipv4.arp arpRequestSent:vector(packetBytes) ETV
attr source arpRequestSent
attr title "ARP request sent, vector(packetBytes)"
vector 334 AODVgrayhole.host[12].ipv4.arp arpReplySent:vector(packetBytes) ETV
attr source arpReplySent
attr title "ARP replies sent, vector(packetBytes)"
vector 335 AODVgrayhole.host[15].ipv4.arp arpRequestSent:vector(packetBytes) ETV
attr source arpRequestSent
attr title "ARP request sent, vector(packetBytes)"
vector 336 AODVgrayhole.host[13].ipv4.arp arpReplySent:vector(packetBytes) ETV
attr source arpReplySent
attr title "ARP replies sent, vector(packetBytes)"
vector 337 AODVgrayhole.host[12].ipv4.arp arpRequestSent:vector(packetBytes) ETV
attr source arpRequestSent
attr title "ARP request sent, vector(packetBytes)"
vector 338 AODVgrayhole.host[9].ipv4.arp arpReplySent:vector(packetBytes) ETV
attr source arpReplySent
attr title "ARP replies sent, vector(packetBytes)"
vector 339 AODVgrayhole.host[13].ipv4.arp arpRequestSent:vector(packetBytes) ETV
attr source arpRequestSent
attr title "ARP request sent, vector(packetBytes)"
vector 340 AODVgrayhole.host[16].ipv4.arp arpReplySent:vector(packetBytes) ETV
attr source arpReplySent
attr title "ARP replies sent, vector(packetBytes)"
vector 341 AODVgrayhole.host[9].ipv4.arp arpRequestSent:vector(packetBytes) ETV
attr source arpRequestSent
attr title "ARP request sent, vector(packetBytes)"
vector 342 AODVgrayhole.host[16].ipv4.arp arpRequestSent:vector(packetBytes) ETV
attr source arpRequestSent
attr title "ARP request sent, vector(packetBytes)"
vector 343 AODVgrayhole.host[11].ipv4.arp arpReplySent:vector(packetBytes) ETV
attr source arpReplySent
attr title "ARP replies sent, vector(packetBytes)"
vector 344 AODVgrayhole.host[11].ipv4.arp arpRequestSent:vector(packetBytes) ETV
attr source arpRequestSent
attr title "ARP request sent, vector(packetBytes)"
vector 345 AODVgrayhole.host[17].ipv4.arp arpReplySent:vector(packetBytes) ETV
attr source arpReplySent
attr title "ARP replies sent, vector(packetBytes)"
vector 346 AODVgrayhole.host[17].ipv4.arp arpRequestSent:vector(packetBytes) ETV
attr source arpRequestSent
attr title "ARP request sent, vector(packetBytes)"
vector 347 AODVgrayhole.host[2].ipv4.arp arpReplySent:vector(packetBytes) ETV
attr source arpReplySent
attr title "ARP replies sent, vector(packetBytes)"
vector 348 AODVgrayhole.host[2].ipv4.arp arpRequestSent:vector(packetBytes) ETV
attr source arpRequestSent
attr title "ARP request sent, vector(packetBytes)"
vector 349 AODVgrayhole.host[7].ipv4.arp arpReplySent:vector(packetBytes) ETV
attr source arpReplySent
attr title "ARP replies sent, vector(packetBytes)"
vector 350 AODVgrayhole.host[7].ipv4.arp arpRequestSent:vector(packetBytes) ETV
attr source arpRequestSent
attr title "ARP request sent, vector(packetBytes)"
vector 351 AODVgrayhole.host[10].ipv4.arp arpReplySent:vector(packetBytes) ETV
attr source arpReplySent
attr title "ARP replies sent, vector(packetBytes)"
vector 352 AODVgrayhole.host[10].ipv4.arp arpRequestSent:vector(packetBytes) ETV
attr source arpRequestSent
attr title "ARP request sent, vector(packetBytes)"
vector 353 AODVgrayhole.host[3].ipv4.arp arpReplySent:vector(packetBytes) ETV
attr source arpReplySent
attr title "ARP replies sent, vector(packetBytes)"
vector 354 AODVgrayhole.host[3].ipv4.arp arpRequestSent:vector(packetBytes) ETV
attr source arpRequestSent
attr title "ARP request sent, vector(packetBytes)"
vector 355 AODVgrayhole.host[5].ipv4.arp arpReplySent:vector(packetBytes) ETV
attr source arpReplySent
attr title "ARP replies sent, vector(packetBytes)"
vector 356 AODVgrayhole.host[5].ipv4.arp arpRequestSent:vector(packetBytes) ETV
attr source arpRequestSent
attr title "ARP request sent, vector(packetBytes)"
vector 357 AODVgrayhole.host[6].ipv4.arp arpRequestSent:vector(packetBytes) ETV
attr source arpRequestSent
attr title "ARP request sent, vector(packetBytes)"
vector 358 AODVgrayhole.host[4].ipv4.arp arpReplySent:vector(packetBytes) ETV
attr source arpReplySent
attr title "ARP replies sent, vector(packetBytes)"
vector 359 AODVgrayhole.host[4].ipv4.arp arpRequestSent:vector(packetBytes) ETV
attr source arpRequestSent
attr title "ARP request sent, vector(packetBytes)"
vector 360 AODVgrayhole.host[14].ipv4.arp arpRequestSent:vector(packetBytes) ETV
attr source arpRequestSent
attr title "ARP request sent, vector(packetBytes)"
vector 361 AODVgrayhole.host[14].ipv4.arp arpReplySent:vector(packetBytes) ETV
attr source arpReplySent
attr title "ARP replies sent, vector(packetBytes)"
vector 362 AODVgrayhole.host[10].ipv4.ip packetDropAddressResolutionFailed:vector(packetBytes) ETV
attr interpolationmode none
attr source packetDropReasonIsAddressResolutionFailed(packetDropped)
attr title "packet drop: address resolution failed, vector(packetBytes)"
vector 363 AODVgrayhole.host[0].ipv4.ip packetDropAddressResolutionFailed:vector(packetBytes) ETV
attr interpolationmode none
attr source packetDropReasonIsAddressResolutionFailed(packetDropped)
attr title "packet drop: address resolution failed, vector(packetBytes)"
vector 364 AODVgrayhole.host[6].ipv4.ip packetDropAddressResolutionFailed:vector(packetBytes) ETV
attr interpolationmode none
attr source packetDropReasonIsAddressResolutionFailed(packetDropped)
attr title "packet drop: address resolution failed, vector(packetBytes)"
vector 365 AODVgrayhole.host[4].ipv4.ip packetDropAddressResolutionFailed:vector(packetBytes) ETV
attr interpolationmode none
attr source packetDropReasonIsAddressResolutionFailed(packetDropped)
attr title "packet drop: address resolution failed, vector(packetBytes)"
vector 366 AODVgrayhole.sender.app[0] throughput:vector ETV
attr source throughput(packetReceived)
attr title "throughput, vector"
attr unit bps
0	0	0	0
0	0	0	0
0	0	0	4
1	0	0	0
1	0	0	0
1	0	0	4
2	0	0	0
2	0	0	0
2	0	0	4
3	0	0	0
3	0	0	0
3	0	0	4
4	0	0	0
4	0	0	0
4	0	0	4
5	0	0	0
5	0	0	0
5	0	0	4
6	0	0	0
6	0	0	0
6	0	0	4
7	0	0	0
7	0	0	0
7	0	0	4
8	0	0	0
8	0	0	0
8	0	0	4
9	0	0	0
9	0	0	0
9	0	0	4
10	0	0	0
10	0	0	0
10	0	0	4
11	0	0	0
11	0	0	0
11	0	0	4
12	0	0	0
12	0	0	0
12	0	0	4
13	0	0	0
13	0	0	0
13	0	0	4
14	0	0	0
14	0	0	0
14	0	0	4
15	0	0	0
15	0	0	0
15	0	0	4
16	0	0	0
16	0	0	0
16	0	0	4
17	0	0	0
17	0	0	0
17	0	0	4
18	0	0	0
18	0	0	0
18	0	0	4
19	0	0	0
19	0	0	0
19	0	0	4
20	0	0	0
20	0	0	0
20	0	0	4
21	0	0	1
21	19189	78.009047720095	3
21	19288	78.009395720095	1
21	19777	78.325709644086	3
21	19826	78.326057644086	1
21	19955	78.326506599875	3
21	20027	78.326758599875	1
21	20094	78.327011617295	3
21	20153	78.327343617295	2
21	20191	78.32745619808	1
21	20264	78.32792031449	3
21	20424	78.32826831449	2
21	20538	78.328614654	1
21	20719	78.329077772817	3
21	20753	78.329329772817	1
21	20837	78.329754469092	3
21	20907	78.330102469092	1
21	21171	78.331404673953	3
21	21200	78.331752673953	1
21	21242	78.332067695042	3
21	21282	78.332319695042	1
21	21360	78.332572867606	3
21	21401	78.332904867606	1
21	21473	78.335206040178	3
21	21514	78.337506040178	1
21	21915	79.006902579364	3
21	21948	79.009202579364	1
21	22411	80.006902582501	3
21	22447	80.009202582501	1
21	22909	81.006902588152	3
21	22953	81.009202588152	1
21	23810	83.006902599507	3
21	23846	83.009202599507	1
21	24305	84.00690260521	3
21	24342	84.00920260521	1
21	24787	85.006902610764	3
21	24824	85.009202610764	1
21	25264	86.006902614961	3
21	25302	86.009202614961	1
21	25742	87.006902619193	3
21	25779	87.009202619193	1
21	28430	91.327574244548	3
21	28496	91.327922244548	1
21	28710	91.329166274482	3
21	28760	91.329514274482	1
21	28793	91.329514992233	3
21	28888	91.329766992233	1
21	28900	91.329767635817	3
21	28963	91.330019635817	1
21	28980	91.330020353564	3
21	29079	91.330352353564	1
21	29412	91.333233783839	3
21	29436	91.333485783839	1
21	29462	91.333486859198	3
21	29501	91.333738859198	1
21	29512	91.333739123459	3
21	29542	91.334071123459	1
21	29743	91.337032408445	3
21	29775	91.337284408445	1
21	29854	91.337538001144	3
21	29883	91.337870001144	1
21	33189	92.346169988518	3
21	33221	92.348469988518	1
21	33232	92.348470257759	3
21	33262	92.350770257759	1
21	33650	93.0092031259	3
21	33682	93.0115031259	1
21	33693	93.011503398433	3
21	33723	93.013803398433	1
21	34950	96.009203146452	3
21	34982	96.011503146452	1
21	34993	96.011503431518	3
21	35024	96.013803431518	1
21	35824	98.009203160587	3
21	35856	98.011503160587	1
21	35866	98.011503453011	3
21	35898	98.013803453011	1
21	39246	102.334602835078	3
21	39312	102.334950835078	1
21	39366	102.336712703554	3
21	39391	102.337060703554	1
21	39423	102.337061345487	3
21	39457	102.337393345487	1
21	39605	102.339740400375	3
21	39627	102.340072400375	1
21	39676	102.345067631419	3
21	39709	102.345319631419	1
21	39782	102.345572643728	3
21	39815	102.345904643728	1
21	44293	105.32430400602	3
21	44385	105.32465200602	1
21	46188	105.810794120711	3
21	46283	105.811142120711	1
21	46474	105.812223706551	3
21	46585	105.812571706551	1
21	46616	105.812572316528	3
21	46651	105.812904316528	1
21	46836	105.815165745955	3
21	46859	105.815417745955	1
21	46925	105.815670955286	3
21	46986	105.816002955286	2
21	47020	105.816200102045	1
21	47044	105.816269886222	3
21	47069	105.816617886222	1
21	50553	106.348714133084	3
21	50594	106.349062133084	1
21	50668	106.353932931932	3
21	50712	106.354264931932	1
21	50795	106.356435835637	3
21	50832	106.356687835637	1
21	50916	106.360250342892	3
21	50949	106.360502342892	1
21	51023	106.360755464309	3
21	51055	106.361087464309	1
21	51893	106.372997977386	3
21	51988	106.373345977386	1
21	53569	107.331852607471	3
21	53663	107.332200607471	1
21	54688	107.807393435592	3
21	54807	107.807741435592	1
21	55502	107.810515196038	3
21	55609	107.810863196038	2
21	55630	107.810863653717	3
21	55732	107.811115653717	1
21	55909	107.813303737167	3
21	55935	107.813651737167	1
21	57624	108.141367767474	3
21	57665	108.141715767474	1
21	58956	108.626353982204	3
21	59022	108.626701982204	1
21	59147	108.628393129502	3
21	59172	108.628741129502	1
21	59203	108.62874171018	3
21	59238	108.62907371018	1
21	59273	108.629900045024	3
21	59299	108.630248045024	1
21	59337	108.630419116842	3
21	59366	108.630767116842	1
21	59474	108.633469006322	3
21	59496	108.633801006322	1
21	59541	108.638548533664	3
21	59571	108.638880533664	1
21	59978	108.81086364723	3
21	60001	108.81111564723	1
21	60015	108.811116532543	3
21	60053	108.811368532543	1
21	60064	108.811368984509	3
21	60101	108.811700984509	1
21	60134	108.815697882721	3
21	60159	108.815949882721	1
21	60224	108.816203545938	3
21	60258	108.816535545938	1
21	62524	109.157200800074	3
21	62668	109.157548800074	1
21	63155	109.159019022744	3
21	63258	109.159351022744	1
21	63408	109.160105752089	3
21	63458	109.160453752089	1
21	63495	109.162204441346	3
21	63549	109.162536441346	1
21	64329	109.177208552727	3
21	64420	109.177556552727	1
21	65183	109.493492481806	3
21	65224	109.493840481806	1
21	65249	109.494238452262	3
21	65299	109.494586452262	1
21	65330	109.494587023879	3
21	65390	109.494919023879	1
21	65895	109.497947089083	3
21	65945	109.498295089083	2
21	65983	109.498321841361	1
21	66047	109.59863914368	3
21	66072	109.59903514368	1
21	67240	109.975204576209	3
21	67327	109.975552576209	1
21	67523	109.977861754813	3
21	67548	109.978209754813	1
21	67594	109.979492496702	3
21	67669	109.979840496702	2
21	67690	109.979841474563	3
21	67752	109.980173474563	2
21	67778	109.98018319087	1
21	67873	109.983257019919	3
21	67928	109.983605019919	2
21	67966	109.983667503744	1
21	69397	110.079889916439	3
21	69422	110.080221916439	1
21	70374	110.298197063197	3
21	70399	110.298545063197	1
21	70504	110.301416448961	3
21	70533	110.301764448961	1
21	70579	110.301764763114	3
21	70704	110.302016763114	2
21	70714	110.302017065527	3
21	70833	110.302269065527	1
21	70861	110.302441142469	3
21	70887	110.302789142469	1
21	70925	110.303171758537	3
21	70954	110.303519758537	1
21	71086	110.401765370097	3
21	71128	110.402113370097	1
21	71153	110.402149793557	3
21	71178	110.402481793557	1
21	71278	110.404219463188	3
21	71344	110.404551463188	1
21	71699	110.412591364111	3
21	71725	110.412923364111	1
21	71785	110.414126545084	3
21	71824	110.414458545084	1
21	71895	110.414792144071	3
21	71936	110.415124144071	1
21	72295	110.420181413201	3
21	72385	110.420513413201	1
21	73137	110.523588376089	3
21	73178	110.523952376089	1
21	73223	110.624440706318	3
21	73248	110.624788706318	1
21	73346	110.626526292304	3
21	73384	110.626858292304	1
21	73935	110.636085204556	3
21	73971	110.636417204556	1
21	74169	110.73073495918	3
21	74214	110.73103495918	1
21	74283	110.731335576186	3
21	74328	110.731635576186	1
21	75184	110.742256593152	3
21	75229	110.742604593152	1
21	75245	110.742604965441	3
21	75271	110.742936965441	1
21	75512	110.747762949653	3
21	75564	110.748110949653	1
21	75580	110.748111322003	3
21	75651	110.748443322003	1
21	75674	110.748444240371	3
21	75714	110.748776240371	1
21	75727	110.748776612727	3
21	75753	110.749108612727	1
21	77344	111.301764758085	3
21	77415	111.302016758085	2
21	77418	111.302016834414	1
21	77426	111.302017074577	3
21	77498	111.302269074577	1
21	78104	111.327555412305	3
21	78196	111.327903412305	1
21	79642	111.525729863602	3
21	79706	111.526093863602	1
21	80055	111.529023308933	3
21	80096	111.529371308933	1
21	81092	111.631368660784	3
21	81144	111.631700660784	1
21	81552	111.748364411711	3
21	81589	111.748616411711	1
21	82648	111.809252036821	3
21	82714	111.809600036821	1
21	82796	111.809743263265	3
21	82846	111.810091263265	1
21	83080	111.81467514707	3
21	83124	111.81500714707	1
21	83155	111.815135212479	3
21	83207	111.815483212479	1
21	83280	111.816946397988	3
21	83335	111.817294397988	2
21	83378	111.817506088584	1
21	83446	111.817759109651	3
21	83503	111.818091109651	1
21	85506	111.847602072608	3
21	85547	111.847950072608	1
21	85572	111.848522628445	3
[...]
366	133551	72.3	0
366	133551	72.4	0
366	133551	72.5	0
366	133551	72.6	0
366	133551	72.7	0
366	133551	72.8	0
366	133551	72.9	0
366	133551	73	0
366	133551	73.1	0
366	133551	73.2	0
366	133551	73.3	0
366	133551	73.4	0
366	133551	73.5	0
366	133551	73.6	0
366	133551	73.7	0
366	133551	73.8	0
366	133551	73.9	0
366	133551	74	0
366	133551	74.1	0
366	133551	74.2	0
366	133551	74.3	0
366	133551	74.4	0
366	133551	74.5	0
366	133551	74.6	0
366	133551	74.7	0
366	133551	74.8	0
366	133551	74.9	0
366	133551	75	0
366	133551	75.1	0
366	133551	75.2	0
366	133551	75.3	0
366	133551	75.4	0
366	133551	75.5	0
366	133551	75.6	0
366	133551	75.7	0
366	133551	75.8	0
366	133551	75.9	0
366	133551	76	0
366	133551	76.1	0
366	133551	76.2	0
366	133551	76.3	0
366	133551	76.4	0
366	133551	76.5	0
366	133551	76.6	0
366	133551	76.7	0
366	133551	76.8	0
366	133551	76.9	0
366	133551	77	0
366	133551	77.1	0
366	133551	77.2	0
366	133551	77.3	0
366	133551	77.4	0
366	133551	77.5	0
366	133551	77.6	0
366	133551	77.7	0
366	133551	77.8	0
366	133551	77.9	0
366	133551	78	0
366	133551	78.1	0
366	133551	78.2	0
366	133551	78.3	0
366	133551	78.4	0
366	133551	78.5	0
366	133551	78.6	0
366	133551	78.7	0
366	133551	78.8	0
366	133551	78.9	0
366	133551	79	0
366	133551	79.1	0
366	133551	79.2	0
366	133551	79.3	0
366	133551	79.4	0
366	133551	79.5	0
366	133551	79.6	0
366	133551	79.7	0
366	133551	79.8	0
366	133551	79.9	0
366	133551	80	0
366	133551	80.1	0
366	133551	80.2	0
366	133551	80.3	0
366	133551	80.4	0
366	133551	80.5	0
366	133551	80.6	0
366	133551	80.7	0
366	133551	80.8	0
366	133551	80.9	0
366	133551	81	0
366	133551	81.1	0
366	133551	81.2	0
366	133551	81.3	0
366	133551	81.4	0
366	133551	81.5	0
366	133551	81.6	0
366	133551	81.7	0
366	133551	81.8	0
366	133551	81.9	0
366	133551	82	0
366	133551	82.1	0
366	133551	82.2	0
366	133551	82.3	0
366	133551	82.4	0
366	133551	82.5	0
366	133551	82.6	0
366	133551	82.7	0
366	133551	82.8	0
366	133551	82.9	0
366	133551	83	0
366	133551	83.1	0
366	133551	83.2	0
366	133551	83.3	0
366	133551	83.4	0
366	133551	83.5	0
366	133551	83.6	0
366	133551	83.7	0
366	133551	83.8	0
366	133551	83.9	0
366	133551	84	0
366	133551	84.1	0
366	133551	84.2	0
366	133551	84.3	0
366	133551	84.4	0
366	133551	84.5	0
366	133551	84.6	0
366	133551	84.7	0
366	133551	84.8	0
366	133551	84.9	0
366	133551	85	0
366	133551	85.1	0
366	133551	85.2	0
366	133551	85.3	0
366	133551	85.4	0
366	133551	85.5	0
366	133551	85.6	0
366	133551	85.7	0
366	133551	85.8	0
366	133551	85.9	0
366	133551	86	0
366	133551	86.1	0
366	133551	86.2	0
366	133551	86.3	0
366	133551	86.4	0
366	133551	86.5	0
366	133551	86.6	0
366	133551	86.7	0
366	133551	86.8	0
366	133551	86.9	0
366	133551	87	0
366	133551	87.1	0
366	133551	87.2	0
366	133551	87.3	0
366	133551	87.4	0
366	133551	87.5	0
366	133551	87.6	0
366	133551	87.7	0
366	133551	87.8	0
366	133551	87.9	0
366	133551	88	0
366	133551	88.1	0
366	133551	88.2	0
366	133551	88.3	0
366	133551	88.4	0
366	133551	88.5	0
366	133551	88.6	0
366	133551	88.7	0
366	133551	88.8	0
366	133551	88.9	0
366	133551	89	0
366	133551	89.1	0
366	133551	89.2	0
366	133551	89.3	0
366	133551	89.4	0
366	133551	89.5	0
366	133551	89.6	0
366	133551	89.7	0
366	133551	89.8	0
366	133551	89.9	0
366	133551	90	0
366	133551	90.1	0
366	133551	90.2	0
366	133551	90.3	0
366	133551	90.4	0
366	133551	90.5	0
366	133551	90.6	0
366	133551	90.7	0
366	133551	90.8	0
366	133551	90.9	0
366	133551	91	0
366	133551	91.1	0
366	133551	91.2	0
366	133551	91.3	0
366	133551	91.4	0
366	133551	91.5	0
366	133551	91.6	0
366	133551	91.7	0
366	133551	91.8	0
366	133551	91.9	0
366	133551	92	0
366	133551	92.1	0
366	133551	92.2	0
366	133551	92.3	0
366	133551	92.4	0
366	133551	92.5	0
366	133551	92.6	0
366	133551	92.7	0
366	133551	92.8	0
366	133551	92.9	0
366	133551	93	0
366	133551	93.1	0
366	133551	93.2	0
366	133551	93.3	0
366	133551	93.4	0
366	133551	93.5	0
366	133551	93.6	0
366	133551	93.7	0
366	133551	93.8	0
366	133551	93.9	0
366	133551	94	0
366	133551	94.1	0
366	133551	94.2	0
366	133551	94.3	0
366	133551	94.4	0
366	133551	94.5	0
366	133551	94.6	0
366	133551	94.7	0
366	133551	94.8	0
366	133551	94.9	0
366	133551	95	0
366	133551	95.1	0
366	133551	95.2	0
366	133551	95.3	0
366	133551	95.4	0
366	133551	95.5	0
366	133551	95.6	0
366	133551	95.7	0
366	133551	95.8	0
366	133551	95.9	0
366	133551	96	0
366	133551	96.1	0
366	133551	96.2	0
366	133551	96.3	0
366	133551	96.4	0
366	133551	96.5	0
366	133551	96.6	0
366	133551	96.7	0
366	133551	96.8	0
366	133551	96.9	0
366	133551	97	0
366	133551	97.1	0
366	133551	97.2	0
366	133551	97.3	0
366	133551	97.4	0
366	133551	97.5	0
366	133551	97.6	0
366	133551	97.7	0
366	133551	97.8	0
366	133551	97.9	0
366	133551	98	0
366	133551	98.1	0
366	133551	98.2	0
366	133551	98.3	0
366	133551	98.4	0
366	133551	98.5	0
366	133551	98.6	0
366	133551	98.7	0
366	133551	98.8	0
366	133551	98.9	0
366	133551	99	0
366	133551	99.1	0
366	133551	99.2	0
366	133551	99.3	0
366	133551	99.4	0
366	133551	99.5	0
366	133551	99.6	0
366	133551	99.7	0
366	133551	99.8	0
366	133551	99.9	0
366	133551	100	0
366	133551	100.1	0
366	133551	100.2	0
366	133551	100.3	0
366	133551	100.4	0
366	133551	100.5	0
366	133551	100.6	0
366	133551	100.7	0
366	133551	100.8	0
366	133551	100.9	0
366	133551	101	0
366	133551	101.1	0
366	133551	101.2	0
366	133551	101.3	0
366	133551	101.4	0
366	133551	101.5	0
366	133551	101.6	0
366	133551	101.7	0
366	133551	101.8	0
366	133551	101.9	0
366	133551	102	0
366	133551	102.1	0
366	133551	102.2	0
366	133551	102.3	0
366	133551	102.4	0
366	133551	102.5	0
366	133551	102.6	0
366	133551	102.7	0
366	133551	102.8	0
366	133551	102.9	0
366	133551	103	0
366	133551	103.1	0
366	133551	103.2	0
366	133551	103.3	0
366	133551	103.4	0
366	133551	103.5	0
366	133551	103.6	0
366	133551	103.7	0
366	133551	103.8	0
366	133551	103.9	0
366	133551	104	0
366	133551	104.1	0
366	133551	104.2	0
366	133551	104.3	0
366	133551	104.4	0
366	133551	104.5	0
366	133551	104.6	0
366	133551	104.7	0
366	133551	104.8	0
366	133551	104.9	0
366	133551	105	0
366	133551	105.1	0
366	133551	105.2	0
366	133551	105.3	0
366	133551	105.4	0
366	133551	105.5	0
366	133551	105.6	0
366	133551	105.7	0
366	133551	105.8	0
366	133551	105.9	0
366	133551	106	0
366	133551	106.1	0
366	133551	106.2	0
366	133551	106.3	0
366	133551	106.4	0
366	133551	106.5	0
366	133551	106.6	0
366	133551	106.7	0
366	133551	106.8	0
366	133551	106.9	0
366	133551	107	0
366	133551	107.1	0
366	133551	107.2	0
366	133551	107.3	0
366	133551	107.4	0
366	133551	107.5	0
366	133551	107.6	0
366	133551	107.7	0
366	133551	107.8	0
366	133551	107.9	0
366	133551	108	0
366	133551	108.1	0
366	133551	108.2	0
366	133551	108.3	0
366	133551	108.4	0
366	133551	108.5	0
366	133551	108.6	0
366	133551	108.7	0
366	133551	108.8	0
366	133551	108.9	0
366	133551	109	0
366	133551	109.1	0
366	133551	109.2	0
366	133551	109.3	0
366	133551	109.4	0
366	133551	109.5	0
366	133551	109.6	0
366	133551	109.7	0
366	133551	109.8	0
366	133551	109.9	0
366	133551	110	0
366	133551	110.1	0
366	133551	110.2	0
366	133551	110.3	0
366	133551	110.4	0
366	133551	110.5	0
366	133551	110.6	0
366	133551	110.7	0
366	133551	110.8	0
366	133551	110.9	0
366	133551	111	0
366	133551	111.1	0
366	133551	111.2	0
366	133551	111.3	0
366	133551	111.4	0
366	133551	111.5	0
366	133551	111.6	0
366	133551	111.7	0
366	133551	111.8	0
366	133551	111.9	0
366	133551	112	0
366	133551	112.1	0
366	133551	112.2	0
366	133551	112.3	0
366	133551	112.4	0
366	133551	112.5	0
366	133551	112.6	0
366	133551	112.7	0
366	133551	112.8	0
366	133551	112.9	0
366	133551	113	0
366	133551	113.1	0
366	133551	113.2	0
366	133551	113.3	0
366	133551	113.4	0
366	133551	113.5	0
366	133551	113.6	0
366	133551	113.7	0
366	133551	113.8	0
366	133551	113.9	0
366	133551	114	0
366	133551	114.1	0
366	133551	114.2	0
366	133551	114.3	0
366	133551	114.4	0
366	133551	114.5	0
366	133551	114.6	0
366	133551	114.7	0
366	133551	114.8	0
366	133551	114.9	0
366	133551	115	0
366	133551	115.1	0
366	133551	115.2	0
366	133551	115.3	0
366	133551	115.4	0
366	133551	115.5	0
366	133551	115.6	0
366	133551	115.7	0
366	133551	115.8	0
366	133551	115.9	0
366	133551	116	0
366	133551	116.1	0
366	133551	116.2	0
366	133551	116.3	0
366	133551	116.4	0
366	133551	116.5	0
366	133551	116.6	0
366	133551	116.7	0
366	133551	116.8	0
366	133551	116.9	0
366	133551	117	0
366	133551	117.1	0
366	133551	117.2	0
366	133551	117.3	0
366	133551	117.4	0
366	133551	117.5	0
366	133551	117.6	0
366	133551	117.7	0
366	133551	117.8	0
366	133551	117.9	0
366	133551	118	0
366	133551	118.1	0
366	133551	118.2	0
366	133551	118.3	0
366	133551	118.4	0
366	133551	118.5	0
366	133551	118.6	0
366	133551	118.7	0
366	133551	118.8	0
366	133551	118.9	0
366	133551	119	0
366	133551	119.1	0
366	133551	119.2	0
366	133551	119.3	0
366	133551	119.4	0
366	133551	119.5	0
366	133551	119.6	0
366	133551	119.7	0
366	133551	119.8	0
366	133551	119.9	0
366	133551	120	0
366	133551	120.1	0
366	133551	120.2	0
366	133551	120.3	0
366	133551	120.4	0
366	133551	120.5	0
366	133551	120.6	0
366	133551	120.7	0
366	133551	120.8	0
366	133551	120.9	0
366	133551	121	0
366	133551	121.1	0
366	133551	121.2	0
366	133551	121.3	0
366	133551	121.4	0
366	133551	121.5	0
366	133551	121.6	0
366	133551	121.7	0
366	133551	121.8	0
366	133551	121.9	0
366	133551	122	0
366	133551	122.1	0
366	133551	122.2	0
366	133551	122.3	0
366	133551	122.4	0
366	133551	122.5	0
366	133551	122.6	0
366	133551	122.7	0
366	133551	122.8	0
366	133551	122.9	0
366	133551	123	0
366	133551	123.1	0
366	133551	123.2	0
366	133551	123.3	0
366	133551	123.4	0
366	133551	123.5	0
366	133551	123.6	0
366	133551	123.7	0
366	133551	123.8	0
366	133551	123.9	0
366	133551	124	0
366	133551	124.1	0
366	133551	124.2	0
366	133551	124.3	0
366	133551	124.4	0
366	133551	124.5	0
366	133551	124.6	0
366	133551	124.7	0
366	133551	124.8	0
366	133551	124.9	0
366	133551	125	0
366	133551	125.1	0
366	133551	125.2	0
366	133551	125.3	0
366	133551	125.4	0
366	133551	125.5	0
366	133551	125.6	0
366	133551	125.7	0
366	133551	125.8	0
366	133551	125.9	0
366	133551	126	0
366	133551	126.1	0
366	133551	126.2	0
366	133551	126.3	0
366	133551	126.4	0
366	133551	126.5	0
366	133551	126.6	0
366	133551	126.7	0
366	133551	126.8	0
366	133551	126.9	0
366	133551	127	0
366	133551	127.1	0
366	133551	127.2	0
366	133551	127.3	0
366	133551	127.4	0
366	133551	127.5	0
366	133551	127.6	0
366	133551	127.7	0
366	133551	127.8	0
366	133551	127.9	0
366	133551	128	0
366	133551	128.1	0
366	133551	128.2	0
366	133551	128.3	0
366	133551	128.4	0
366	133551	128.5	0
366	133551	128.6	0
366	133551	128.7	0
366	133551	128.8	0
366	133551	128.9	0
366	133551	129	0
366	133551	129.1	0
366	133551	129.2	0
366	133551	129.3	0
366	133551	129.4	0
366	133551	129.5	0
366	133551	129.6	0
366	133551	129.7	0
366	133551	129.8	0
366	133551	129.9	0
366	133551	130	0
366	133551	130.1	0
366	133551	130.2	0
366	133551	130.3	0
366	133551	130.4	0
366	133551	130.5	0
366	133551	130.6	0
366	133551	130.7	0
366	133551	130.8	0
366	133551	130.9	0
366	133551	131	0
366	133551	131.1	0
366	133551	131.2	0
366	133551	131.3	0
366	133551	131.4	0
366	133551	131.5	0
366	133551	131.6	0
366	133551	131.7	0
366	133551	131.8	0
366	133551	131.9	0
366	133551	132	0
366	133551	132.1	0
366	133551	132.2	0
366	133551	132.3	0
366	133551	132.4	0
366	133551	132.5	0
366	133551	132.6	0
366	133551	132.7	0
366	133551	132.8	0
366	133551	132.9	0
366	133551	133	0
366	133551	133.1	0
366	133551	133.2	0
366	133551	133.3	0
366	133551	133.4	0
366	133551	133.5	0
366	133551	133.6	0
366	133551	133.7	0
366	133551	133.8	0
366	133551	133.9	0
366	133551	134	0
366	133551	134.1	0
366	133551	134.2	0
366	133551	134.3	0
366	133551	134.4	0
366	133551	134.5	0
366	133551	134.6	0
366	133551	134.7	0
366	133551	134.8	0
366	133551	134.9	0
366	133551	135	0
366	133551	135.1	0
366	133551	135.2	0
366	133551	135.3	0
366	133551	135.4	0
366	133551	135.5	0
366	133551	135.6	0
366	133551	135.7	0
366	133551	135.8	0
366	133551	135.9	0
366	133551	136	0
366	133551	136.1	0
366	133551	136.2	0
366	133551	136.3	0
366	133551	136.4	0
366	133551	136.5	0
366	133551	136.6	0
366	133551	136.7	0
366	133551	136.8	0
366	133551	136.9	0
366	133551	137	0
366	133551	137.1	0
366	133551	137.2	0
366	133551	137.3	0
366	133551	137.4	0
366	133551	137.5	0
366	133551	137.6	0
366	133551	137.7	0
366	133551	137.8	0
366	133551	137.9	0
366	133551	138	0
366	133551	138.1	0
366	133551	138.2	0
366	133551	138.3	0
366	133551	138.4	0
366	133551	138.5	0
366	133551	138.6	0
366	133551	138.7	0
366	133551	138.8	0
366	133551	138.9	0
366	133551	139	0
366	133551	139.1	0
366	133551	139.2	0
366	133551	139.3	0
366	133551	139.4	0
366	133551	139.5	0
366	133551	139.6	0
366	133551	139.7	0
366	133551	139.8	0
366	133551	139.9	0
366	133551	140	0
366	133551	140.1	0
366	133551	140.2	0
366	133551	140.3	0
366	133551	140.4	0
366	133551	140.5	0
366	133551	140.6	0
366	133551	140.7	0
366	133551	140.8	0
366	133551	140.9	0
366	133551	141	0
366	133551	141.1	0
366	133551	141.2	0
366	133551	141.3	0
366	133551	141.4	0
366	133551	141.5	0
366	133551	141.6	0
366	133551	141.7	0
366	133551	141.8	0
366	133551	141.9	0
366	133551	142	0
366	133551	142.1	0
366	133551	142.2	0
366	133551	142.3	0
366	133551	142.4	0
366	133551	142.5	0
366	133551	142.6	0
366	133551	142.7	0
366	133551	142.8	0
366	133551	142.9	0
366	133551	143	0
366	133551	143.1	0
366	133551	143.2	0
366	133551	143.3	0
366	133551	143.4	0
366	133551	143.5	0
366	133551	143.6	0
366	133551	143.7	0
366	133551	143.8	0
366	133551	143.9	0
366	133551	144	0
366	133551	144.1	0
366	133551	144.2	0
366	133551	144.3	0
366	133551	144.4	0
366	133551	144.5	0
366	133551	144.6	0
366	133551	144.7	0
366	133551	144.8	0
366	133551	144.9	0
366	133551	145	0
366	133551	145.1	0
366	133551	145.2	0
366	133551	145.3	0
366	133551	145.4	0
366	133551	145.5	0
366	133551	145.6	0
366	133551	145.7	0
366	133551	145.8	0
366	133551	145.9	0
366	133551	146	0
366	133551	146.1	0
366	133551	146.2	0
366	133551	146.3	0
366	133551	146.4	0
366	133551	146.5	0
366	133551	146.6	0
366	133551	146.7	0
366	133551	146.8	0
366	133551	146.9	0
366	133551	147	0
366	133551	147.1	0
366	133551	147.2	0
366	133551	147.3	0
366	133551	147.4	0
366	133551	147.5	0
366	133551	147.6	0
366	133551	147.7	0
366	133551	147.8	0
366	133551	147.9	0
366	133551	148	0
366	133551	148.1	0
366	133551	148.2	0
366	133551	148.3	0
366	133551	148.4	0
366	133551	148.5	0
366	133551	148.6	0
366	133551	148.7	0
366	133551	148.8	0
366	133551	148.9	0
366	133551	149	0
366	133551	149.1	0
366	133551	149.2	0
366	133551	149.3	0
366	133551	149.4	0
366	133551	149.5	0
366	133551	149.6	0
366	133551	149.7	0
366	133551	149.8	0
366	133551	149.9	0
366	133551	150	0
366	133551	150.1	0
366	133551	150.2	0
366	133551	150.3	0
366	133551	150.4	0
366	133551	150.5	0
366	133551	150.6	0
366	133551	150.7	0
366	133551	150.8	0
366	133551	150.9	0
366	133551	151	0
366	133551	151.1	0
366	133551	151.2	0
366	133551	151.3	0
366	133551	151.4	0
366	133551	151.5	0
366	133551	151.6	0
366	133551	151.7	0
366	133551	151.8	0
366	133551	151.9	0
366	133551	152	0
366	133551	152.1	0
366	133551	152.2	0
366	133551	152.3	0
366	133551	152.4	0
366	133551	152.5	0
366	133551	152.6	0
366	133551	152.7	0
366	133551	152.8	0
366	133551	152.9	0
366	133551	153	0
366	133551	153.1	0
366	133551	153.2	0
366	133551	153.3	0
366	133551	153.4	0
366	133551	153.5	0
366	133551	153.6	0
366	133551	153.7	0
366	133551	153.8	0
366	133551	153.9	0
366	133551	154	0
366	133551	154.1	0
366	133551	154.2	0
366	133551	154.3	0
366	133551	154.4	0
366	133551	154.5	0
366	133551	154.6	0
366	133551	154.7	0
366	133551	154.8	0
366	133551	154.9	0
366	133551	155	0
366	133551	155.1	0
366	133551	155.2	0
366	133551	155.3	0
366	133551	155.4	0
366	133551	155.5	0
366	133551	155.6	0
366	133551	155.7	0
366	133551	155.8	0
366	133551	155.9	0
366	133551	156	0
366	133551	156.1	0
366	133551	156.2	0
366	133551	156.3	0
366	133551	156.4	0
366	133551	156.5	0
366	133551	156.6	0
366	133551	156.7	0
366	133551	156.8	0
366	133551	156.9	0
366	133551	157	0
366	133551	157.1	0
366	133551	157.2	0
366	133551	157.3	0
366	133551	157.4	0
366	133551	157.5	0
366	133551	157.6	0
366	133551	157.7	0
366	133551	157.8	0
366	133551	157.9	0
366	133551	158	0
366	133551	158.1	0
366	133551	158.2	0
366	133551	158.3	0
366	133551	158.4	0
366	133551	158.5	0
366	133551	158.6	0
366	133551	158.7	0
366	133551	158.8	0
366	133551	158.9	0
366	133551	159	0
366	133551	159.1	0
366	133551	159.2	0
366	133551	159.3	0
366	133551	159.4	0
366	133551	159.5	0
366	133551	159.6	0
366	133551	159.7	0
366	133551	159.8	0
366	133551	159.9	0
366	133551	160	0
366	133551	160.1	0
366	133551	160.2	0
366	133551	160.3	0
366	133551	160.4	0
366	133551	160.5	0
366	133551	160.6	0
366	133551	160.7	0
366	133551	160.8	0
366	133551	160.9	0
366	133551	161	0
366	133551	161.1	0
366	133551	161.2	0
366	133551	161.3	0
366	133551	161.4	0
366	133551	161.5	0
366	133551	161.6	0
366	133551	161.7	0
366	133551	161.8	0
366	133551	161.9	0
366	133551	162	0
366	133551	162.1	0
366	133551	162.2	0
366	133551	162.3	0
366	133551	162.4	0
366	133551	162.5	0
366	133551	162.6	0
366	133551	162.7	0
366	133551	162.8	0
366	133551	162.9	0
366	133551	163	0
366	133551	163.1	0
366	133551	163.2	0
366	133551	163.3	0
366	133551	163.4	0
366	133551	163.5	0
366	133551	163.6	0
366	133551	163.7	0
366	133551	163.8	0
366	133551	163.9	0
366	133551	164	0
366	133551	164.1	0
366	133551	164.2	0
366	133551	164.3	0
366	133551	164.4	0
366	133551	164.5	0
366	133551	164.6	0
366	133551	164.7	0
366	133551	164.8	0
366	133551	164.9	0
366	133551	165	0
366	133551	165.1	0
366	133551	165.2	0
366	133551	165.3	0
366	133551	165.4	0
366	133551	165.5	0
366	133551	165.6	0
366	133551	165.7	0
366	133551	165.8	0
366	133551	165.9	0
366	133551	166	0
366	133551	166.1	0
366	133551	166.2	0
366	133551	166.3	0
366	133551	166.4	0
366	133551	166.5	0
366	133551	166.6	0
366	133551	166.7	0
366	133551	166.8	0
366	133551	166.9	0
366	133551	167	0
366	133551	167.1	0
366	133551	167.2	0
366	133551	167.3	0
366	133551	167.4	0
366	133551	167.5	0
366	133551	167.6	0
366	133551	167.7	0
366	133551	167.8	0
366	133551	167.9	0
366	133551	168	0
366	133551	168.1	0
366	133551	168.2	0
366	133551	168.3	0
366	133551	168.4	0
366	133551	168.5	0
366	133551	168.6	0
366	133551	168.7	0
366	133551	168.8	0
366	133551	168.9	0
366	133551	169	0
366	133551	169.1	0
366	133551	169.2	0
366	133551	169.3	0
366	133551	169.4	0
366	133551	169.5	0
366	133551	169.6	0
366	133551	169.7	0
366	133551	169.8	0
366	133551	169.9	0
366	133551	170	0
366	133551	170.1	0
366	133551	170.2	0
366	133551	170.3	0
366	133551	170.4	0
366	133551	170.5	0
366	133551	170.6	0
366	133551	170.7	0
366	133551	170.8	0
366	133551	170.9	0
366	133551	171	0
366	133551	171.1	0
366	133551	171.2	0
366	133551	171.3	0
366	133551	171.4	0
366	133551	171.5	0
366	133551	171.6	0
366	133551	171.7	0
366	133551	171.8	0
366	133551	171.9	0
366	133551	172	0
366	133551	172.1	0
366	133551	172.2	0
366	133551	172.3	0
366	133551	172.4	0
366	133551	172.5	0
366	133551	172.6	0
366	133551	172.7	0
366	133551	172.8	0
366	133551	172.9	0
366	133551	173	0
366	133551	173.1	0
366	133551	173.2	0
366	133551	173.3	0
366	133551	173.4	0
366	133551	173.5	0
366	133551	173.6	0
366	133551	173.7	0
366	133551	173.8	0
366	133551	173.9	0
366	133551	174	0
366	133551	174.1	0
366	133551	174.2	0
366	133551	174.3	0
366	133551	174.4	0
366	133551	174.5	0
366	133551	174.6	0
366	133551	174.7	0
366	133551	174.8	0
366	133551	174.9	0
366	133551	175	0
366	133551	175.1	0
366	133551	175.2	0
366	133551	175.3	0
366	133551	175.4	0
366	133551	175.5	0
366	133551	175.6	0
366	133551	175.7	0
366	133551	175.8	0
366	133551	175.9	0
366	133551	176	0
366	133551	176.1	0
366	133551	176.2	0
366	133551	176.3	0
366	133551	176.4	0
366	133551	176.5	0
366	133551	176.6	0
366	133551	176.7	0
366	133551	176.8	0
366	133551	176.9	0
366	133551	177	0
366	133551	177.1	0
366	133551	177.2	0
366	133551	177.3	0
366	133551	177.4	0
366	133551	177.5	0
366	133551	177.6	0
366	133551	177.7	0
366	133551	177.8	0
366	133551	177.9	0
366	133551	178	0
366	133551	178.1	0
366	133551	178.2	0
366	133551	178.3	0
366	133551	178.4	0
366	133551	178.5	0
366	133551	178.6	0
366	133551	178.7	0
366	133551	178.8	0
366	133551	178.9	0
366	133551	179	0
366	133551	179.1	0
366	133551	179.2	0
366	133551	179.3	0
366	133551	179.4	0
366	133551	179.5	0
366	133551	179.6	0
366	133551	179.7	0
366	133551	179.8	0
366	133551	179.9	0
366	133551	180	0

