version 2
run MoreDynamic-blackhole-0-20200316-09:19:31-32350
attr configname MoreDynamic-blackhole
attr datetime 20200316-09:19:31
attr experiment MoreDynamic-blackhole
attr inifile AODVgrayhole.ini
attr iterationvars ""
attr iterationvarsf ""
attr measurement ""
attr network AODVgrayhole
attr processid 32350
attr repetition 0
attr replication #0
attr resultdir results
attr runnumber 0
attr seedset 0
param *.host[*].hasStatus true
param *.scenarioManager.script "xmldoc(\"moreDynamic.xml\")"
param *.host[*].wlan[*].radio.transmitter.communicationRange 250m
param **.wlan[*].typename "\"AckingWirelessInterface\""
param **.wlan[*].bitrate 2Mbps
param **.wlan[*].mac.headerLength 23B
param **.wlan[*].radio.typename "\"UnitDiskRadio\""
param **.wlan[*].radio.transmitter.headerLength 96b
param **.wlan[*].radio.transmitter.communicationRange 250m
param **.wlan[*].radio.transmitter.interferenceRange 0m
param **.wlan[*].radio.transmitter.detectionRange 0m
param **.wlan[*].radio.receiver.ignoreInterference true
param *.numHosts 18
param **.host[*].mobility.typename "\"StationaryMobility\""
param **.mobility.constraintAreaMinZ 0m
param **.mobility.constraintAreaMaxZ 0m
param **.mobility.constraintAreaMinX 5m
param **.mobility.constraintAreaMinY 5m
param **.mobility.constraintAreaMaxX 785m
param **.mobility.constraintAreaMaxY 490m
param *.visualizer.sceneVisualizer.descriptionFigure "\"title\""
param *.visualizer.dataLinkVisualizer.displayLinks true
param *.visualizer.networkRouteVisualizer.displayRoutes true
param *.visualizer.networkRouteVisualizer.lineShift 0
param *.visualizer.networkRouteVisualizer.packetFilter "\"UDPData*\""
param *.visualizer.physicalLinkVisualizer.packetFilter "\"UDPData*\""
param *.sender.numApps 1
param *.sender.app[0].typename "\"UdpBasicApp\""
param *.sender.app[0].destAddresses "\"receiver\""
param *.sender.app[0].destPort 1000
param *.sender.app[0].sendInterval 1s
param *.sender.app[0].startTime 0s
param *.sender.app[0].messageLength 512Byte
param *.sender.app[0].packetName "\"UDPdata\""
param *.receiver.numApps 1
param *.receiver.app[0].typename "\"UdpSink\""
param *.receiver.app[0].localPort 1000
param **.hasStatus true

vector 0 AODVgrayhole.host[0].wlan[0].radio radioMode:vector ETV
attr interpolationmode sample-hold
attr source radioModeChanged
attr title "Radio mode, vector"
vector 1 AODVgrayhole.host[1].wlan[0].radio radioMode:vector ETV
attr interpolationmode sample-hold
attr source radioModeChanged
attr title "Radio mode, vector"
vector 2 AODVgrayhole.host[2].wlan[0].radio radioMode:vector ETV
attr interpolationmode sample-hold
attr source radioModeChanged
attr title "Radio mode, vector"
vector 3 AODVgrayhole.host[3].wlan[0].radio radioMode:vector ETV
attr interpolationmode sample-hold
attr source radioModeChanged
attr title "Radio mode, vector"
vector 4 AODVgrayhole.host[4].wlan[0].radio radioMode:vector ETV
attr interpolationmode sample-hold
attr source radioModeChanged
attr title "Radio mode, vector"
vector 5 AODVgrayhole.host[5].wlan[0].radio radioMode:vector ETV
attr interpolationmode sample-hold
attr source radioModeChanged
attr title "Radio mode, vector"
vector 6 AODVgrayhole.host[6].wlan[0].radio radioMode:vector ETV
attr interpolationmode sample-hold
attr source radioModeChanged
attr title "Radio mode, vector"
vector 7 AODVgrayhole.host[7].wlan[0].radio radioMode:vector ETV
attr interpolationmode sample-hold
attr source radioModeChanged
attr title "Radio mode, vector"
vector 8 AODVgrayhole.host[8].wlan[0].radio radioMode:vector ETV
attr interpolationmode sample-hold
attr source radioModeChanged
attr title "Radio mode, vector"
vector 9 AODVgrayhole.host[9].wlan[0].radio radioMode:vector ETV
attr interpolationmode sample-hold
attr source radioModeChanged
attr title "Radio mode, vector"
vector 10 AODVgrayhole.host[10].wlan[0].radio radioMode:vector ETV
attr interpolationmode sample-hold
attr source radioModeChanged
attr title "Radio mode, vector"
vector 11 AODVgrayhole.host[11].wlan[0].radio radioMode:vector ETV
attr interpolationmode sample-hold
attr source radioModeChanged
attr title "Radio mode, vector"
vector 12 AODVgrayhole.host[12].wlan[0].radio radioMode:vector ETV
attr interpolationmode sample-hold
attr source radioModeChanged
attr title "Radio mode, vector"
vector 13 AODVgrayhole.host[13].wlan[0].radio radioMode:vector ETV
attr interpolationmode sample-hold
attr source radioModeChanged
attr title "Radio mode, vector"
vector 14 AODVgrayhole.host[14].wlan[0].radio radioMode:vector ETV
attr interpolationmode sample-hold
attr source radioModeChanged
attr title "Radio mode, vector"
vector 15 AODVgrayhole.host[15].wlan[0].radio radioMode:vector ETV
attr interpolationmode sample-hold
attr source radioModeChanged
attr title "Radio mode, vector"
vector 16 AODVgrayhole.host[16].wlan[0].radio radioMode:vector ETV
attr interpolationmode sample-hold
attr source radioModeChanged
attr title "Radio mode, vector"
vector 17 AODVgrayhole.host[17].wlan[0].radio radioMode:vector ETV
attr interpolationmode sample-hold
attr source radioModeChanged
attr title "Radio mode, vector"
vector 18 AODVgrayhole.sender.wlan[0].radio radioMode:vector ETV
attr interpolationmode sample-hold
attr source radioModeChanged
attr title "Radio mode, vector"
vector 19 AODVgrayhole.receiver.wlan[0].radio radioMode:vector ETV
attr interpolationmode sample-hold
attr source radioModeChanged
attr title "Radio mode, vector"
vector 20 AODVgrayhole.ntu_Grayholer.wlan[0].radio radioMode:vector ETV
attr interpolationmode sample-hold
attr source radioModeChanged
attr title "Radio mode, vector"
vector 21 AODVgrayhole.host[0].wlan[0].radio receptionState:vector ETV
attr interpolationmode sample-hold
attr source receptionStateChanged
attr title "Radio reception state, vector"
vector 22 AODVgrayhole.host[0].wlan[0].radio transmissionState:vector ETV
attr interpolationmode sample-hold
attr source transmissionStateChanged
attr title "Radio transmission state, vector"
vector 23 AODVgrayhole.host[1].wlan[0].radio receptionState:vector ETV
attr interpolationmode sample-hold
attr source receptionStateChanged
attr title "Radio reception state, vector"
vector 24 AODVgrayhole.host[1].wlan[0].radio transmissionState:vector ETV
attr interpolationmode sample-hold
attr source transmissionStateChanged
attr title "Radio transmission state, vector"
vector 25 AODVgrayhole.host[2].wlan[0].radio receptionState:vector ETV
attr interpolationmode sample-hold
attr source receptionStateChanged
attr title "Radio reception state, vector"
vector 26 AODVgrayhole.host[2].wlan[0].radio transmissionState:vector ETV
attr interpolationmode sample-hold
attr source transmissionStateChanged
attr title "Radio transmission state, vector"
vector 27 AODVgrayhole.host[3].wlan[0].radio receptionState:vector ETV
attr interpolationmode sample-hold
attr source receptionStateChanged
attr title "Radio reception state, vector"
vector 28 AODVgrayhole.host[3].wlan[0].radio transmissionState:vector ETV
attr interpolationmode sample-hold
attr source transmissionStateChanged
attr title "Radio transmission state, vector"
vector 29 AODVgrayhole.host[4].wlan[0].radio receptionState:vector ETV
attr interpolationmode sample-hold
attr source receptionStateChanged
attr title "Radio reception state, vector"
vector 30 AODVgrayhole.host[4].wlan[0].radio transmissionState:vector ETV
attr interpolationmode sample-hold
attr source transmissionStateChanged
attr title "Radio transmission state, vector"
vector 31 AODVgrayhole.host[5].wlan[0].radio receptionState:vector ETV
attr interpolationmode sample-hold
attr source receptionStateChanged
attr title "Radio reception state, vector"
vector 32 AODVgrayhole.host[5].wlan[0].radio transmissionState:vector ETV
attr interpolationmode sample-hold
attr source transmissionStateChanged
attr title "Radio transmission state, vector"
vector 33 AODVgrayhole.host[6].wlan[0].radio receptionState:vector ETV
attr interpolationmode sample-hold
attr source receptionStateChanged
attr title "Radio reception state, vector"
vector 34 AODVgrayhole.host[6].wlan[0].radio transmissionState:vector ETV
attr interpolationmode sample-hold
attr source transmissionStateChanged
attr title "Radio transmission state, vector"
vector 35 AODVgrayhole.host[7].wlan[0].radio receptionState:vector ETV
attr interpolationmode sample-hold
attr source receptionStateChanged
attr title "Radio reception state, vector"
vector 36 AODVgrayhole.host[7].wlan[0].radio transmissionState:vector ETV
attr interpolationmode sample-hold
attr source transmissionStateChanged
attr title "Radio transmission state, vector"
vector 37 AODVgrayhole.host[8].wlan[0].radio receptionState:vector ETV
attr interpolationmode sample-hold
attr source receptionStateChanged
attr title "Radio reception state, vector"
vector 38 AODVgrayhole.host[8].wlan[0].radio transmissionState:vector ETV
attr interpolationmode sample-hold
attr source transmissionStateChanged
attr title "Radio transmission state, vector"
vector 39 AODVgrayhole.host[9].wlan[0].radio receptionState:vector ETV
attr interpolationmode sample-hold
attr source receptionStateChanged
attr title "Radio reception state, vector"
vector 40 AODVgrayhole.host[9].wlan[0].radio transmissionState:vector ETV
attr interpolationmode sample-hold
attr source transmissionStateChanged
attr title "Radio transmission state, vector"
vector 41 AODVgrayhole.host[10].wlan[0].radio receptionState:vector ETV
attr interpolationmode sample-hold
attr source receptionStateChanged
attr title "Radio reception state, vector"
vector 42 AODVgrayhole.host[10].wlan[0].radio transmissionState:vector ETV
attr interpolationmode sample-hold
attr source transmissionStateChanged
attr title "Radio transmission state, vector"
vector 43 AODVgrayhole.host[11].wlan[0].radio receptionState:vector ETV
attr interpolationmode sample-hold
attr source receptionStateChanged
attr title "Radio reception state, vector"
vector 44 AODVgrayhole.host[11].wlan[0].radio transmissionState:vector ETV
attr interpolationmode sample-hold
attr source transmissionStateChanged
attr title "Radio transmission state, vector"
vector 45 AODVgrayhole.host[12].wlan[0].radio receptionState:vector ETV
attr interpolationmode sample-hold
attr source receptionStateChanged
attr title "Radio reception state, vector"
vector 46 AODVgrayhole.host[12].wlan[0].radio transmissionState:vector ETV
attr interpolationmode sample-hold
attr source transmissionStateChanged
attr title "Radio transmission state, vector"
vector 47 AODVgrayhole.host[13].wlan[0].radio receptionState:vector ETV
attr interpolationmode sample-hold
attr source receptionStateChanged
attr title "Radio reception state, vector"
vector 48 AODVgrayhole.host[13].wlan[0].radio transmissionState:vector ETV
attr interpolationmode sample-hold
attr source transmissionStateChanged
attr title "Radio transmission state, vector"
vector 49 AODVgrayhole.host[14].wlan[0].radio receptionState:vector ETV
attr interpolationmode sample-hold
attr source receptionStateChanged
attr title "Radio reception state, vector"
vector 50 AODVgrayhole.host[14].wlan[0].radio transmissionState:vector ETV
attr interpolationmode sample-hold
attr source transmissionStateChanged
attr title "Radio transmission state, vector"
vector 51 AODVgrayhole.host[15].wlan[0].radio receptionState:vector ETV
attr interpolationmode sample-hold
attr source receptionStateChanged
attr title "Radio reception state, vector"
vector 52 AODVgrayhole.host[15].wlan[0].radio transmissionState:vector ETV
attr interpolationmode sample-hold
attr source transmissionStateChanged
attr title "Radio transmission state, vector"
vector 53 AODVgrayhole.host[16].wlan[0].radio receptionState:vector ETV
attr interpolationmode sample-hold
attr source receptionStateChanged
attr title "Radio reception state, vector"
vector 54 AODVgrayhole.host[16].wlan[0].radio transmissionState:vector ETV
attr interpolationmode sample-hold
attr source transmissionStateChanged
attr title "Radio transmission state, vector"
vector 55 AODVgrayhole.host[17].wlan[0].radio receptionState:vector ETV
attr interpolationmode sample-hold
attr source receptionStateChanged
attr title "Radio reception state, vector"
vector 56 AODVgrayhole.host[17].wlan[0].radio transmissionState:vector ETV
attr interpolationmode sample-hold
attr source transmissionStateChanged
attr title "Radio transmission state, vector"
vector 57 AODVgrayhole.sender.wlan[0].radio receptionState:vector ETV
attr interpolationmode sample-hold
attr source receptionStateChanged
attr title "Radio reception state, vector"
vector 58 AODVgrayhole.sender.wlan[0].radio transmissionState:vector ETV
attr interpolationmode sample-hold
attr source transmissionStateChanged
attr title "Radio transmission state, vector"
vector 59 AODVgrayhole.receiver.wlan[0].radio receptionState:vector ETV
attr interpolationmode sample-hold
attr source receptionStateChanged
attr title "Radio reception state, vector"
vector 60 AODVgrayhole.receiver.wlan[0].radio transmissionState:vector ETV
attr interpolationmode sample-hold
attr source transmissionStateChanged
attr title "Radio transmission state, vector"
vector 61 AODVgrayhole.ntu_Grayholer.wlan[0].radio receptionState:vector ETV
attr interpolationmode sample-hold
attr source receptionStateChanged
attr title "Radio reception state, vector"
vector 62 AODVgrayhole.ntu_Grayholer.wlan[0].radio transmissionState:vector ETV
attr interpolationmode sample-hold
attr source transmissionStateChanged
attr title "Radio transmission state, vector"
vector 63 AODVgrayhole.sender.app[0] packetSent:vector(packetBytes) ETV
attr interpolationmode none
attr source packetSent
attr title "packets sent, vector(packetBytes)"
vector 64 AODVgrayhole.sender.udp packetSent:vector(packetBytes) ETV
attr interpolationmode none
attr source packetSent
attr title "packets sent, vector(packetBytes)"
vector 65 AODVgrayhole.sender.wlan[0].mac rcvdPkFromHl:vector(packetBytes) ETV
attr interpolationmode none
attr source packetReceivedFromUpper
attr title "packets received from higher layer, vector(packetBytes)"
vector 66 AODVgrayhole.sender.wlan[0].mac.queue packetPushed:vector(packetBytes) ETV
attr interpolationmode none
attr title "packet pushed, vector(packetBytes)"
vector 67 AODVgrayhole.sender.wlan[0].mac.queue queueLength:vector ETV
attr interpolationmode sample-hold
attr source "count(packetPushed) - count(packetPopped) - count(packetRemoved) - count(packetDropped)"
attr title "queue length, vector"
vector 68 AODVgrayhole.sender.wlan[0].mac.queue packetPopped:vector(packetBytes) ETV
attr interpolationmode none
attr title "packet popped, vector(packetBytes)"
vector 69 AODVgrayhole.sender.wlan[0].mac.queue queueingTime:vector ETV
attr interpolationmode none
attr source queueingTime(packetPopped)
attr title "queueing times, vector"
attr unit s
vector 70 AODVgrayhole.sender.wlan[0].mac sentDownPk:vector(packetBytes) ETV
attr interpolationmode none
attr source packetSentToLower
attr title "packets sent to lower layer, vector(packetBytes)"
vector 71 AODVgrayhole.host[10].wlan[0].mac rcvdPkFromLl:vector(packetBytes) ETV
attr interpolationmode none
attr source packetReceivedFromLower
attr title "packets received from lower layer, vector(packetBytes)"
vector 72 AODVgrayhole.host[10].wlan[0].mac passedUpPk:vector(packetBytes) ETV
attr interpolationmode none
attr source packetSentToUpper
attr title "packets passed to higher layer, vector(packetBytes)"
vector 73 AODVgrayhole.host[10].udp packetReceived:vector(packetBytes) ETV
attr interpolationmode none
attr source packetReceived
attr title "packets received, vector(packetBytes)"
vector 74 AODVgrayhole.host[10].udp passedUpPk:vector(count) ETV
attr interpolationmode none
attr source packetSentToUpper
attr title "packets passed up, vector(count)"
vector 75 AODVgrayhole.host[8].wlan[0].mac rcvdPkFromLl:vector(packetBytes) ETV
attr interpolationmode none
attr source packetReceivedFromLower
attr title "packets received from lower layer, vector(packetBytes)"
vector 76 AODVgrayhole.host[8].wlan[0].mac passedUpPk:vector(packetBytes) ETV
attr interpolationmode none
attr source packetSentToUpper
attr title "packets passed to higher layer, vector(packetBytes)"
vector 77 AODVgrayhole.host[8].udp packetReceived:vector(packetBytes) ETV
attr interpolationmode none
attr source packetReceived
attr title "packets received, vector(packetBytes)"
vector 78 AODVgrayhole.host[8].udp passedUpPk:vector(count) ETV
attr interpolationmode none
attr source packetSentToUpper
attr title "packets passed up, vector(count)"
vector 79 AODVgrayhole.host[11].wlan[0].mac rcvdPkFromLl:vector(packetBytes) ETV
attr interpolationmode none
attr source packetReceivedFromLower
attr title "packets received from lower layer, vector(packetBytes)"
vector 80 AODVgrayhole.host[11].wlan[0].mac passedUpPk:vector(packetBytes) ETV
attr interpolationmode none
attr source packetSentToUpper
attr title "packets passed to higher layer, vector(packetBytes)"
vector 81 AODVgrayhole.host[11].udp packetReceived:vector(packetBytes) ETV
attr interpolationmode none
attr source packetReceived
attr title "packets received, vector(packetBytes)"
vector 82 AODVgrayhole.host[11].udp passedUpPk:vector(count) ETV
attr interpolationmode none
attr source packetSentToUpper
attr title "packets passed up, vector(count)"
vector 83 AODVgrayhole.host[2].wlan[0].mac rcvdPkFromLl:vector(packetBytes) ETV
attr interpolationmode none
attr source packetReceivedFromLower
attr title "packets received from lower layer, vector(packetBytes)"
vector 84 AODVgrayhole.host[2].wlan[0].mac passedUpPk:vector(packetBytes) ETV
attr interpolationmode none
attr source packetSentToUpper
attr title "packets passed to higher layer, vector(packetBytes)"
vector 85 AODVgrayhole.host[2].udp packetReceived:vector(packetBytes) ETV
attr interpolationmode none
attr source packetReceived
attr title "packets received, vector(packetBytes)"
vector 86 AODVgrayhole.host[2].udp passedUpPk:vector(count) ETV
attr interpolationmode none
attr source packetSentToUpper
attr title "packets passed up, vector(count)"
vector 87 AODVgrayhole.host[7].wlan[0].mac rcvdPkFromLl:vector(packetBytes) ETV
attr interpolationmode none
attr source packetReceivedFromLower
attr title "packets received from lower layer, vector(packetBytes)"
vector 88 AODVgrayhole.host[7].wlan[0].mac passedUpPk:vector(packetBytes) ETV
attr interpolationmode none
attr source packetSentToUpper
attr title "packets passed to higher layer, vector(packetBytes)"
vector 89 AODVgrayhole.host[7].udp packetReceived:vector(packetBytes) ETV
attr interpolationmode none
attr source packetReceived
attr title "packets received, vector(packetBytes)"
vector 90 AODVgrayhole.host[7].udp passedUpPk:vector(count) ETV
attr interpolationmode none
attr source packetSentToUpper
attr title "packets passed up, vector(count)"
vector 91 AODVgrayhole.host[7].udp packetSent:vector(packetBytes) ETV
attr interpolationmode none
attr source packetSent
attr title "packets sent, vector(packetBytes)"
vector 92 AODVgrayhole.host[7].wlan[0].mac rcvdPkFromHl:vector(packetBytes) ETV
attr interpolationmode none
attr source packetReceivedFromUpper
attr title "packets received from higher layer, vector(packetBytes)"
vector 93 AODVgrayhole.host[7].wlan[0].mac.queue packetPushed:vector(packetBytes) ETV
attr interpolationmode none
attr title "packet pushed, vector(packetBytes)"
vector 94 AODVgrayhole.host[7].wlan[0].mac.queue queueLength:vector ETV
attr interpolationmode sample-hold
attr source "count(packetPushed) - count(packetPopped) - count(packetRemoved) - count(packetDropped)"
attr title "queue length, vector"
vector 95 AODVgrayhole.host[7].wlan[0].mac.queue packetPopped:vector(packetBytes) ETV
attr interpolationmode none
attr title "packet popped, vector(packetBytes)"
vector 96 AODVgrayhole.host[7].wlan[0].mac.queue queueingTime:vector ETV
attr interpolationmode none
attr source queueingTime(packetPopped)
attr title "queueing times, vector"
attr unit s
vector 97 AODVgrayhole.host[7].wlan[0].mac sentDownPk:vector(packetBytes) ETV
attr interpolationmode none
attr source packetSentToLower
attr title "packets sent to lower layer, vector(packetBytes)"
vector 98 AODVgrayhole.host[11].udp packetSent:vector(packetBytes) ETV
attr interpolationmode none
attr source packetSent
attr title "packets sent, vector(packetBytes)"
vector 99 AODVgrayhole.host[11].wlan[0].mac rcvdPkFromHl:vector(packetBytes) ETV
attr interpolationmode none
attr source packetReceivedFromUpper
attr title "packets received from higher layer, vector(packetBytes)"
vector 100 AODVgrayhole.host[11].wlan[0].mac.queue packetPushed:vector(packetBytes) ETV
attr interpolationmode none
attr title "packet pushed, vector(packetBytes)"
vector 101 AODVgrayhole.host[11].wlan[0].mac.queue queueLength:vector ETV
attr interpolationmode sample-hold
attr source "count(packetPushed) - count(packetPopped) - count(packetRemoved) - count(packetDropped)"
attr title "queue length, vector"
vector 102 AODVgrayhole.host[11].wlan[0].mac.queue packetPopped:vector(packetBytes) ETV
attr interpolationmode none
attr title "packet popped, vector(packetBytes)"
vector 103 AODVgrayhole.host[11].wlan[0].mac.queue queueingTime:vector ETV
attr interpolationmode none
attr source queueingTime(packetPopped)
attr title "queueing times, vector"
attr unit s
vector 104 AODVgrayhole.host[11].wlan[0].mac sentDownPk:vector(packetBytes) ETV
attr interpolationmode none
attr source packetSentToLower
attr title "packets sent to lower layer, vector(packetBytes)"
vector 105 AODVgrayhole.host[9].wlan[0].mac rcvdPkFromLl:vector(packetBytes) ETV
attr interpolationmode none
attr source packetReceivedFromLower
attr title "packets received from lower layer, vector(packetBytes)"
vector 106 AODVgrayhole.host[9].wlan[0].mac passedUpPk:vector(packetBytes) ETV
attr interpolationmode none
attr source packetSentToUpper
attr title "packets passed to higher layer, vector(packetBytes)"
vector 107 AODVgrayhole.host[9].udp packetReceived:vector(packetBytes) ETV
attr interpolationmode none
attr source packetReceived
attr title "packets received, vector(packetBytes)"
vector 108 AODVgrayhole.host[9].udp passedUpPk:vector(count) ETV
attr interpolationmode none
attr source packetSentToUpper
attr title "packets passed up, vector(count)"
vector 109 AODVgrayhole.ntu_Grayholer.wlan[0].mac rcvdPkFromLl:vector(packetBytes) ETV
attr interpolationmode none
attr source packetReceivedFromLower
attr title "packets received from lower layer, vector(packetBytes)"
vector 110 AODVgrayhole.ntu_Grayholer.wlan[0].mac passedUpPk:vector(packetBytes) ETV
attr interpolationmode none
attr source packetSentToUpper
attr title "packets passed to higher layer, vector(packetBytes)"
vector 111 AODVgrayhole.ntu_Grayholer.udp packetReceived:vector(packetBytes) ETV
attr interpolationmode none
attr source packetReceived
attr title "packets received, vector(packetBytes)"
vector 112 AODVgrayhole.ntu_Grayholer.udp passedUpPk:vector(count) ETV
attr interpolationmode none
attr source packetSentToUpper
attr title "packets passed up, vector(count)"
vector 113 AODVgrayhole.ntu_Grayholer.udp packetSent:vector(packetBytes) ETV
attr interpolationmode none
attr source packetSent
attr title "packets sent, vector(packetBytes)"
vector 114 AODVgrayhole.ntu_Grayholer.ipv4.arp arpRequestSent:vector(packetBytes) ETV
attr source arpRequestSent
attr title "ARP request sent, vector(packetBytes)"
vector 115 AODVgrayhole.ntu_Grayholer.wlan[0].mac rcvdPkFromHl:vector(packetBytes) ETV
attr interpolationmode none
attr source packetReceivedFromUpper
attr title "packets received from higher layer, vector(packetBytes)"
vector 116 AODVgrayhole.ntu_Grayholer.wlan[0].mac.queue packetPushed:vector(packetBytes) ETV
attr interpolationmode none
attr title "packet pushed, vector(packetBytes)"
vector 117 AODVgrayhole.ntu_Grayholer.wlan[0].mac.queue queueLength:vector ETV
attr interpolationmode sample-hold
attr source "count(packetPushed) - count(packetPopped) - count(packetRemoved) - count(packetDropped)"
attr title "queue length, vector"
vector 118 AODVgrayhole.ntu_Grayholer.wlan[0].mac.queue packetPopped:vector(packetBytes) ETV
attr interpolationmode none
attr title "packet popped, vector(packetBytes)"
vector 119 AODVgrayhole.ntu_Grayholer.wlan[0].mac.queue queueingTime:vector ETV
attr interpolationmode none
attr source queueingTime(packetPopped)
attr title "queueing times, vector"
attr unit s
vector 120 AODVgrayhole.ntu_Grayholer.wlan[0].mac sentDownPk:vector(packetBytes) ETV
attr interpolationmode none
attr source packetSentToLower
attr title "packets sent to lower layer, vector(packetBytes)"
vector 121 AODVgrayhole.host[15].wlan[0].mac rcvdPkFromLl:vector(packetBytes) ETV
attr interpolationmode none
attr source packetReceivedFromLower
attr title "packets received from lower layer, vector(packetBytes)"
vector 122 AODVgrayhole.host[15].wlan[0].mac passedUpPk:vector(packetBytes) ETV
attr interpolationmode none
attr source packetSentToUpper
attr title "packets passed to higher layer, vector(packetBytes)"
vector 123 AODVgrayhole.host[15].udp packetReceived:vector(packetBytes) ETV
attr interpolationmode none
attr source packetReceived
attr title "packets received, vector(packetBytes)"
vector 124 AODVgrayhole.host[15].udp passedUpPk:vector(count) ETV
attr interpolationmode none
attr source packetSentToUpper
attr title "packets passed up, vector(count)"
vector 125 AODVgrayhole.host[1].wlan[0].mac rcvdPkFromLl:vector(packetBytes) ETV
attr interpolationmode none
attr source packetReceivedFromLower
attr title "packets received from lower layer, vector(packetBytes)"
vector 126 AODVgrayhole.host[1].wlan[0].mac passedUpPk:vector(packetBytes) ETV
attr interpolationmode none
attr source packetSentToUpper
attr title "packets passed to higher layer, vector(packetBytes)"
vector 127 AODVgrayhole.host[1].udp packetReceived:vector(packetBytes) ETV
attr interpolationmode none
attr source packetReceived
attr title "packets received, vector(packetBytes)"
vector 128 AODVgrayhole.host[1].udp passedUpPk:vector(count) ETV
attr interpolationmode none
attr source packetSentToUpper
attr title "packets passed up, vector(count)"
vector 129 AODVgrayhole.host[16].wlan[0].mac rcvdPkFromLl:vector(packetBytes) ETV
attr interpolationmode none
attr source packetReceivedFromLower
attr title "packets received from lower layer, vector(packetBytes)"
vector 130 AODVgrayhole.host[16].wlan[0].mac passedUpPk:vector(packetBytes) ETV
attr interpolationmode none
attr source packetSentToUpper
attr title "packets passed to higher layer, vector(packetBytes)"
vector 131 AODVgrayhole.host[16].udp packetReceived:vector(packetBytes) ETV
attr interpolationmode none
attr source packetReceived
attr title "packets received, vector(packetBytes)"
vector 132 AODVgrayhole.host[16].udp passedUpPk:vector(count) ETV
attr interpolationmode none
attr source packetSentToUpper
attr title "packets passed up, vector(count)"
vector 133 AODVgrayhole.host[4].wlan[0].mac rcvdPkFromLl:vector(packetBytes) ETV
attr interpolationmode none
attr source packetReceivedFromLower
attr title "packets received from lower layer, vector(packetBytes)"
vector 134 AODVgrayhole.host[4].wlan[0].mac passedUpPk:vector(packetBytes) ETV
attr interpolationmode none
attr source packetSentToUpper
attr title "packets passed to higher layer, vector(packetBytes)"
vector 135 AODVgrayhole.host[4].udp packetReceived:vector(packetBytes) ETV
attr interpolationmode none
attr source packetReceived
attr title "packets received, vector(packetBytes)"
vector 136 AODVgrayhole.host[4].udp passedUpPk:vector(count) ETV
attr interpolationmode none
attr source packetSentToUpper
attr title "packets passed up, vector(count)"
vector 137 AODVgrayhole.sender.wlan[0].mac rcvdPkFromLl:vector(packetBytes) ETV
attr interpolationmode none
attr source packetReceivedFromLower
attr title "packets received from lower layer, vector(packetBytes)"
vector 138 AODVgrayhole.sender.wlan[0].mac passedUpPk:vector(packetBytes) ETV
attr interpolationmode none
attr source packetSentToUpper
attr title "packets passed to higher layer, vector(packetBytes)"
vector 139 AODVgrayhole.sender.udp packetReceived:vector(packetBytes) ETV
attr interpolationmode none
attr source packetReceived
attr title "packets received, vector(packetBytes)"
vector 140 AODVgrayhole.sender.udp passedUpPk:vector(count) ETV
attr interpolationmode none
attr source packetSentToUpper
attr title "packets passed up, vector(count)"
vector 141 AODVgrayhole.host[17].wlan[0].mac rcvdPkFromLl:vector(packetBytes) ETV
attr interpolationmode none
attr source packetReceivedFromLower
attr title "packets received from lower layer, vector(packetBytes)"
vector 142 AODVgrayhole.host[17].wlan[0].mac passedUpPk:vector(packetBytes) ETV
attr interpolationmode none
attr source packetSentToUpper
attr title "packets passed to higher layer, vector(packetBytes)"
vector 143 AODVgrayhole.host[12].wlan[0].mac rcvdPkFromLl:vector(packetBytes) ETV
attr interpolationmode none
attr source packetReceivedFromLower
attr title "packets received from lower layer, vector(packetBytes)"
vector 144 AODVgrayhole.host[12].wlan[0].mac passedUpPk:vector(packetBytes) ETV
attr interpolationmode none
attr source packetSentToUpper
attr title "packets passed to higher layer, vector(packetBytes)"
vector 145 AODVgrayhole.host[12].udp packetReceived:vector(packetBytes) ETV
attr interpolationmode none
attr source packetReceived
attr title "packets received, vector(packetBytes)"
vector 146 AODVgrayhole.host[12].udp passedUpPk:vector(count) ETV
attr interpolationmode none
attr source packetSentToUpper
attr title "packets passed up, vector(count)"
vector 147 AODVgrayhole.host[10].udp packetSent:vector(packetBytes) ETV
attr interpolationmode none
attr source packetSent
attr title "packets sent, vector(packetBytes)"
vector 148 AODVgrayhole.host[10].wlan[0].mac rcvdPkFromHl:vector(packetBytes) ETV
attr interpolationmode none
attr source packetReceivedFromUpper
attr title "packets received from higher layer, vector(packetBytes)"
vector 149 AODVgrayhole.host[10].wlan[0].mac.queue packetPushed:vector(packetBytes) ETV
attr interpolationmode none
attr title "packet pushed, vector(packetBytes)"
vector 150 AODVgrayhole.host[10].wlan[0].mac.queue queueLength:vector ETV
attr interpolationmode sample-hold
attr source "count(packetPushed) - count(packetPopped) - count(packetRemoved) - count(packetDropped)"
attr title "queue length, vector"
vector 151 AODVgrayhole.host[10].wlan[0].mac.queue packetPopped:vector(packetBytes) ETV
attr interpolationmode none
attr title "packet popped, vector(packetBytes)"
vector 152 AODVgrayhole.host[10].wlan[0].mac.queue queueingTime:vector ETV
attr interpolationmode none
attr source queueingTime(packetPopped)
attr title "queueing times, vector"
attr unit s
vector 153 AODVgrayhole.host[10].wlan[0].mac sentDownPk:vector(packetBytes) ETV
attr interpolationmode none
attr source packetSentToLower
attr title "packets sent to lower layer, vector(packetBytes)"
vector 154 AODVgrayhole.host[8].udp packetSent:vector(packetBytes) ETV
attr interpolationmode none
attr source packetSent
attr title "packets sent, vector(packetBytes)"
vector 155 AODVgrayhole.host[8].wlan[0].mac rcvdPkFromHl:vector(packetBytes) ETV
attr interpolationmode none
attr source packetReceivedFromUpper
attr title "packets received from higher layer, vector(packetBytes)"
vector 156 AODVgrayhole.host[8].wlan[0].mac.queue packetPushed:vector(packetBytes) ETV
attr interpolationmode none
attr title "packet pushed, vector(packetBytes)"
vector 157 AODVgrayhole.host[8].wlan[0].mac.queue queueLength:vector ETV
attr interpolationmode sample-hold
attr source "count(packetPushed) - count(packetPopped) - count(packetRemoved) - count(packetDropped)"
attr title "queue length, vector"
vector 158 AODVgrayhole.host[8].wlan[0].mac.queue packetPopped:vector(packetBytes) ETV
attr interpolationmode none
attr title "packet popped, vector(packetBytes)"
vector 159 AODVgrayhole.host[8].wlan[0].mac.queue queueingTime:vector ETV
attr interpolationmode none
attr source queueingTime(packetPopped)
attr title "queueing times, vector"
attr unit s
vector 160 AODVgrayhole.host[8].wlan[0].mac sentDownPk:vector(packetBytes) ETV
attr interpolationmode none
attr source packetSentToLower
attr title "packets sent to lower layer, vector(packetBytes)"
vector 161 AODVgrayhole.host[2].udp packetSent:vector(packetBytes) ETV
attr interpolationmode none
attr source packetSent
attr title "packets sent, vector(packetBytes)"
vector 162 AODVgrayhole.host[2].wlan[0].mac rcvdPkFromHl:vector(packetBytes) ETV
attr interpolationmode none
attr source packetReceivedFromUpper
attr title "packets received from higher layer, vector(packetBytes)"
vector 163 AODVgrayhole.host[2].wlan[0].mac.queue packetPushed:vector(packetBytes) ETV
attr interpolationmode none
attr title "packet pushed, vector(packetBytes)"
vector 164 AODVgrayhole.host[2].wlan[0].mac.queue queueLength:vector ETV
attr interpolationmode sample-hold
attr source "count(packetPushed) - count(packetPopped) - count(packetRemoved) - count(packetDropped)"
attr title "queue length, vector"
vector 165 AODVgrayhole.host[2].wlan[0].mac.queue packetPopped:vector(packetBytes) ETV
attr interpolationmode none
attr title "packet popped, vector(packetBytes)"
vector 166 AODVgrayhole.host[2].wlan[0].mac.queue queueingTime:vector ETV
attr interpolationmode none
attr source queueingTime(packetPopped)
attr title "queueing times, vector"
attr unit s
vector 167 AODVgrayhole.host[2].wlan[0].mac sentDownPk:vector(packetBytes) ETV
attr interpolationmode none
attr source packetSentToLower
attr title "packets sent to lower layer, vector(packetBytes)"
vector 168 AODVgrayhole.host[2].ipv4.arp arpReplySent:vector(packetBytes) ETV
attr source arpReplySent
attr title "ARP replies sent, vector(packetBytes)"
vector 169 AODVgrayhole.host[9].udp packetSent:vector(packetBytes) ETV
attr interpolationmode none
attr source packetSent
attr title "packets sent, vector(packetBytes)"
vector 170 AODVgrayhole.host[9].wlan[0].mac rcvdPkFromHl:vector(packetBytes) ETV
attr interpolationmode none
attr source packetReceivedFromUpper
attr title "packets received from higher layer, vector(packetBytes)"
vector 171 AODVgrayhole.host[9].wlan[0].mac.queue packetPushed:vector(packetBytes) ETV
attr interpolationmode none
attr title "packet pushed, vector(packetBytes)"
vector 172 AODVgrayhole.host[9].wlan[0].mac.queue queueLength:vector ETV
attr interpolationmode sample-hold
attr source "count(packetPushed) - count(packetPopped) - count(packetRemoved) - count(packetDropped)"
attr title "queue length, vector"
vector 173 AODVgrayhole.host[9].wlan[0].mac.queue packetPopped:vector(packetBytes) ETV
attr interpolationmode none
attr title "packet popped, vector(packetBytes)"
vector 174 AODVgrayhole.host[9].wlan[0].mac.queue queueingTime:vector ETV
attr interpolationmode none
attr source queueingTime(packetPopped)
attr title "queueing times, vector"
attr unit s
vector 175 AODVgrayhole.host[9].wlan[0].mac sentDownPk:vector(packetBytes) ETV
attr interpolationmode none
attr source packetSentToLower
attr title "packets sent to lower layer, vector(packetBytes)"
vector 176 AODVgrayhole.host[7].wlan[0].mac packetDropNotAddressedToUs:vector(packetBytes) ETV
attr interpolationmode none
attr source packetDropReasonIsNotAddressedToUs(packetDropped)
attr title "packet drop: not addressed to us, vector(packetBytes)"
vector 177 AODVgrayhole.host[8].wlan[0].mac packetDropNotAddressedToUs:vector(packetBytes) ETV
attr interpolationmode none
attr source packetDropReasonIsNotAddressedToUs(packetDropped)
attr title "packet drop: not addressed to us, vector(packetBytes)"
vector 178 AODVgrayhole.host[9].wlan[0].mac packetDropNotAddressedToUs:vector(packetBytes) ETV
attr interpolationmode none
attr source packetDropReasonIsNotAddressedToUs(packetDropped)
attr title "packet drop: not addressed to us, vector(packetBytes)"
vector 179 AODVgrayhole.host[15].wlan[0].mac packetDropNotAddressedToUs:vector(packetBytes) ETV
attr interpolationmode none
attr source packetDropReasonIsNotAddressedToUs(packetDropped)
attr title "packet drop: not addressed to us, vector(packetBytes)"
vector 180 AODVgrayhole.host[16].wlan[0].mac packetDropNotAddressedToUs:vector(packetBytes) ETV
attr interpolationmode none
attr source packetDropReasonIsNotAddressedToUs(packetDropped)
attr title "packet drop: not addressed to us, vector(packetBytes)"
vector 181 AODVgrayhole.host[6].wlan[0].mac rcvdPkFromLl:vector(packetBytes) ETV
attr interpolationmode none
attr source packetReceivedFromLower
attr title "packets received from lower layer, vector(packetBytes)"
vector 182 AODVgrayhole.host[6].wlan[0].mac passedUpPk:vector(packetBytes) ETV
attr interpolationmode none
attr source packetSentToUpper
attr title "packets passed to higher layer, vector(packetBytes)"
vector 183 AODVgrayhole.host[6].udp packetReceived:vector(packetBytes) ETV
attr interpolationmode none
attr source packetReceived
attr title "packets received, vector(packetBytes)"
vector 184 AODVgrayhole.host[6].udp passedUpPk:vector(count) ETV
attr interpolationmode none
attr source packetSentToUpper
attr title "packets passed up, vector(count)"
vector 185 AODVgrayhole.host[3].wlan[0].mac rcvdPkFromLl:vector(packetBytes) ETV
attr interpolationmode none
attr source packetReceivedFromLower
attr title "packets received from lower layer, vector(packetBytes)"
vector 186 AODVgrayhole.host[3].wlan[0].mac passedUpPk:vector(packetBytes) ETV
attr interpolationmode none
attr source packetSentToUpper
attr title "packets passed to higher layer, vector(packetBytes)"
vector 187 AODVgrayhole.host[3].udp packetReceived:vector(packetBytes) ETV
attr interpolationmode none
attr source packetReceived
attr title "packets received, vector(packetBytes)"
vector 188 AODVgrayhole.host[3].udp passedUpPk:vector(count) ETV
attr interpolationmode none
attr source packetSentToUpper
attr title "packets passed up, vector(count)"
vector 189 AODVgrayhole.host[5].wlan[0].mac rcvdPkFromLl:vector(packetBytes) ETV
attr interpolationmode none
attr source packetReceivedFromLower
attr title "packets received from lower layer, vector(packetBytes)"
vector 190 AODVgrayhole.host[5].wlan[0].mac passedUpPk:vector(packetBytes) ETV
attr interpolationmode none
attr source packetSentToUpper
attr title "packets passed to higher layer, vector(packetBytes)"
vector 191 AODVgrayhole.host[5].udp packetReceived:vector(packetBytes) ETV
attr interpolationmode none
attr source packetReceived
attr title "packets received, vector(packetBytes)"
vector 192 AODVgrayhole.host[5].udp passedUpPk:vector(count) ETV
attr interpolationmode none
attr source packetSentToUpper
attr title "packets passed up, vector(count)"
vector 193 AODVgrayhole.host[17].wlan[0].mac packetDropNotAddressedToUs:vector(packetBytes) ETV
attr interpolationmode none
attr source packetDropReasonIsNotAddressedToUs(packetDropped)
attr title "packet drop: not addressed to us, vector(packetBytes)"
vector 194 AODVgrayhole.host[1].udp packetSent:vector(packetBytes) ETV
attr interpolationmode none
attr source packetSent
attr title "packets sent, vector(packetBytes)"
vector 195 AODVgrayhole.host[1].wlan[0].mac rcvdPkFromHl:vector(packetBytes) ETV
attr interpolationmode none
attr source packetReceivedFromUpper
attr title "packets received from higher layer, vector(packetBytes)"
vector 196 AODVgrayhole.host[1].wlan[0].mac.queue packetPushed:vector(packetBytes) ETV
attr interpolationmode none
attr title "packet pushed, vector(packetBytes)"
vector 197 AODVgrayhole.host[1].wlan[0].mac.queue queueLength:vector ETV
attr interpolationmode sample-hold
attr source "count(packetPushed) - count(packetPopped) - count(packetRemoved) - count(packetDropped)"
attr title "queue length, vector"
vector 198 AODVgrayhole.host[1].wlan[0].mac.queue packetPopped:vector(packetBytes) ETV
attr interpolationmode none
attr title "packet popped, vector(packetBytes)"
vector 199 AODVgrayhole.host[1].wlan[0].mac.queue queueingTime:vector ETV
attr interpolationmode none
attr source queueingTime(packetPopped)
attr title "queueing times, vector"
attr unit s
vector 200 AODVgrayhole.host[1].wlan[0].mac sentDownPk:vector(packetBytes) ETV
attr interpolationmode none
attr source packetSentToLower
attr title "packets sent to lower layer, vector(packetBytes)"
vector 201 AODVgrayhole.host[5].udp packetSent:vector(packetBytes) ETV
attr interpolationmode none
attr source packetSent
attr title "packets sent, vector(packetBytes)"
vector 202 AODVgrayhole.host[5].wlan[0].mac rcvdPkFromHl:vector(packetBytes) ETV
attr interpolationmode none
attr source packetReceivedFromUpper
attr title "packets received from higher layer, vector(packetBytes)"
vector 203 AODVgrayhole.host[5].wlan[0].mac.queue packetPushed:vector(packetBytes) ETV
attr interpolationmode none
attr title "packet pushed, vector(packetBytes)"
vector 204 AODVgrayhole.host[5].wlan[0].mac.queue queueLength:vector ETV
attr interpolationmode sample-hold
attr source "count(packetPushed) - count(packetPopped) - count(packetRemoved) - count(packetDropped)"
attr title "queue length, vector"
vector 205 AODVgrayhole.host[5].wlan[0].mac.queue packetPopped:vector(packetBytes) ETV
attr interpolationmode none
attr title "packet popped, vector(packetBytes)"
vector 206 AODVgrayhole.host[5].wlan[0].mac.queue queueingTime:vector ETV
attr interpolationmode none
attr source queueingTime(packetPopped)
attr title "queueing times, vector"
attr unit s
vector 207 AODVgrayhole.host[5].wlan[0].mac sentDownPk:vector(packetBytes) ETV
attr interpolationmode none
attr source packetSentToLower
attr title "packets sent to lower layer, vector(packetBytes)"
vector 208 AODVgrayhole.host[16].udp packetSent:vector(packetBytes) ETV
attr interpolationmode none
attr source packetSent
attr title "packets sent, vector(packetBytes)"
vector 209 AODVgrayhole.host[16].wlan[0].mac rcvdPkFromHl:vector(packetBytes) ETV
attr interpolationmode none
attr source packetReceivedFromUpper
attr title "packets received from higher layer, vector(packetBytes)"
vector 210 AODVgrayhole.host[16].wlan[0].mac.queue packetPushed:vector(packetBytes) ETV
attr interpolationmode none
attr title "packet pushed, vector(packetBytes)"
vector 211 AODVgrayhole.host[16].wlan[0].mac.queue queueLength:vector ETV
attr interpolationmode sample-hold
attr source "count(packetPushed) - count(packetPopped) - count(packetRemoved) - count(packetDropped)"
attr title "queue length, vector"
vector 212 AODVgrayhole.host[16].wlan[0].mac.queue packetPopped:vector(packetBytes) ETV
attr interpolationmode none
attr title "packet popped, vector(packetBytes)"
vector 213 AODVgrayhole.host[16].wlan[0].mac.queue queueingTime:vector ETV
attr interpolationmode none
attr source queueingTime(packetPopped)
attr title "queueing times, vector"
attr unit s
vector 214 AODVgrayhole.host[16].wlan[0].mac sentDownPk:vector(packetBytes) ETV
attr interpolationmode none
attr source packetSentToLower
attr title "packets sent to lower layer, vector(packetBytes)"
vector 215 AODVgrayhole.host[13].wlan[0].mac rcvdPkFromLl:vector(packetBytes) ETV
attr interpolationmode none
attr source packetReceivedFromLower
attr title "packets received from lower layer, vector(packetBytes)"
vector 216 AODVgrayhole.host[13].wlan[0].mac passedUpPk:vector(packetBytes) ETV
attr interpolationmode none
attr source packetSentToUpper
attr title "packets passed to higher layer, vector(packetBytes)"
vector 217 AODVgrayhole.host[13].udp packetReceived:vector(packetBytes) ETV
attr interpolationmode none
attr source packetReceived
attr title "packets received, vector(packetBytes)"
vector 218 AODVgrayhole.host[13].udp passedUpPk:vector(count) ETV
attr interpolationmode none
attr source packetSentToUpper
attr title "packets passed up, vector(count)"
vector 219 AODVgrayhole.host[0].wlan[0].mac rcvdPkFromLl:vector(packetBytes) ETV
attr interpolationmode none
attr source packetReceivedFromLower
attr title "packets received from lower layer, vector(packetBytes)"
vector 220 AODVgrayhole.host[0].wlan[0].mac passedUpPk:vector(packetBytes) ETV
attr interpolationmode none
attr source packetSentToUpper
attr title "packets passed to higher layer, vector(packetBytes)"
vector 221 AODVgrayhole.host[0].udp packetReceived:vector(packetBytes) ETV
attr interpolationmode none
attr source packetReceived
attr title "packets received, vector(packetBytes)"
vector 222 AODVgrayhole.host[0].udp passedUpPk:vector(count) ETV
attr interpolationmode none
attr source packetSentToUpper
attr title "packets passed up, vector(count)"
vector 223 AODVgrayhole.host[14].wlan[0].mac rcvdPkFromLl:vector(packetBytes) ETV
attr interpolationmode none
attr source packetReceivedFromLower
attr title "packets received from lower layer, vector(packetBytes)"
vector 224 AODVgrayhole.host[14].wlan[0].mac passedUpPk:vector(packetBytes) ETV
attr interpolationmode none
attr source packetSentToUpper
attr title "packets passed to higher layer, vector(packetBytes)"
vector 225 AODVgrayhole.host[14].udp packetReceived:vector(packetBytes) ETV
attr interpolationmode none
attr source packetReceived
attr title "packets received, vector(packetBytes)"
vector 226 AODVgrayhole.host[14].udp passedUpPk:vector(count) ETV
attr interpolationmode none
attr source packetSentToUpper
attr title "packets passed up, vector(count)"
vector 227 AODVgrayhole.receiver.wlan[0].mac rcvdPkFromLl:vector(packetBytes) ETV
attr interpolationmode none
attr source packetReceivedFromLower
attr title "packets received from lower layer, vector(packetBytes)"
vector 228 AODVgrayhole.receiver.wlan[0].mac passedUpPk:vector(packetBytes) ETV
attr interpolationmode none
attr source packetSentToUpper
attr title "packets passed to higher layer, vector(packetBytes)"
vector 229 AODVgrayhole.receiver.udp packetReceived:vector(packetBytes) ETV
attr interpolationmode none
attr source packetReceived
attr title "packets received, vector(packetBytes)"
vector 230 AODVgrayhole.receiver.udp passedUpPk:vector(count) ETV
attr interpolationmode none
attr source packetSentToUpper
attr title "packets passed up, vector(count)"
vector 231 AODVgrayhole.receiver.udp packetSent:vector(packetBytes) ETV
attr interpolationmode none
attr source packetSent
attr title "packets sent, vector(packetBytes)"
vector 232 AODVgrayhole.receiver.ipv4.arp arpRequestSent:vector(packetBytes) ETV
attr source arpRequestSent
attr title "ARP request sent, vector(packetBytes)"
vector 233 AODVgrayhole.receiver.wlan[0].mac rcvdPkFromHl:vector(packetBytes) ETV
attr interpolationmode none
attr source packetReceivedFromUpper
attr title "packets received from higher layer, vector(packetBytes)"
vector 234 AODVgrayhole.receiver.wlan[0].mac.queue packetPushed:vector(packetBytes) ETV
attr interpolationmode none
attr title "packet pushed, vector(packetBytes)"
vector 235 AODVgrayhole.receiver.wlan[0].mac.queue queueLength:vector ETV
attr interpolationmode sample-hold
attr source "count(packetPushed) - count(packetPopped) - count(packetRemoved) - count(packetDropped)"
attr title "queue length, vector"
vector 236 AODVgrayhole.receiver.wlan[0].mac.queue packetPopped:vector(packetBytes) ETV
attr interpolationmode none
attr title "packet popped, vector(packetBytes)"
vector 237 AODVgrayhole.receiver.wlan[0].mac.queue queueingTime:vector ETV
attr interpolationmode none
attr source queueingTime(packetPopped)
attr title "queueing times, vector"
attr unit s
vector 238 AODVgrayhole.receiver.wlan[0].mac sentDownPk:vector(packetBytes) ETV
attr interpolationmode none
attr source packetSentToLower
attr title "packets sent to lower layer, vector(packetBytes)"
vector 239 AODVgrayhole.host[6].udp packetSent:vector(packetBytes) ETV
attr interpolationmode none
attr source packetSent
attr title "packets sent, vector(packetBytes)"
vector 240 AODVgrayhole.host[6].wlan[0].mac rcvdPkFromHl:vector(packetBytes) ETV
attr interpolationmode none
attr source packetReceivedFromUpper
attr title "packets received from higher layer, vector(packetBytes)"
vector 241 AODVgrayhole.host[6].wlan[0].mac.queue packetPushed:vector(packetBytes) ETV
attr interpolationmode none
attr title "packet pushed, vector(packetBytes)"
vector 242 AODVgrayhole.host[6].wlan[0].mac.queue queueLength:vector ETV
attr interpolationmode sample-hold
attr source "count(packetPushed) - count(packetPopped) - count(packetRemoved) - count(packetDropped)"
attr title "queue length, vector"
vector 243 AODVgrayhole.host[6].wlan[0].mac.queue packetPopped:vector(packetBytes) ETV
attr interpolationmode none
attr title "packet popped, vector(packetBytes)"
vector 244 AODVgrayhole.host[6].wlan[0].mac.queue queueingTime:vector ETV
attr interpolationmode none
attr source queueingTime(packetPopped)
attr title "queueing times, vector"
attr unit s
vector 245 AODVgrayhole.host[6].wlan[0].mac sentDownPk:vector(packetBytes) ETV
attr interpolationmode none
attr source packetSentToLower
attr title "packets sent to lower layer, vector(packetBytes)"
vector 246 AODVgrayhole.host[3].udp packetSent:vector(packetBytes) ETV
attr interpolationmode none
attr source packetSent
attr title "packets sent, vector(packetBytes)"
vector 247 AODVgrayhole.host[3].wlan[0].mac rcvdPkFromHl:vector(packetBytes) ETV
attr interpolationmode none
attr source packetReceivedFromUpper
attr title "packets received from higher layer, vector(packetBytes)"
vector 248 AODVgrayhole.host[3].wlan[0].mac.queue packetPushed:vector(packetBytes) ETV
attr interpolationmode none
attr title "packet pushed, vector(packetBytes)"
vector 249 AODVgrayhole.host[3].wlan[0].mac.queue queueLength:vector ETV
attr interpolationmode sample-hold
attr source "count(packetPushed) - count(packetPopped) - count(packetRemoved) - count(packetDropped)"
attr title "queue length, vector"
vector 250 AODVgrayhole.host[3].wlan[0].mac.queue packetPopped:vector(packetBytes) ETV
attr interpolationmode none
attr title "packet popped, vector(packetBytes)"
vector 251 AODVgrayhole.host[3].wlan[0].mac.queue queueingTime:vector ETV
attr interpolationmode none
attr source queueingTime(packetPopped)
attr title "queueing times, vector"
attr unit s
vector 252 AODVgrayhole.host[3].wlan[0].mac sentDownPk:vector(packetBytes) ETV
attr interpolationmode none
attr source packetSentToLower
attr title "packets sent to lower layer, vector(packetBytes)"
vector 253 AODVgrayhole.host[15].udp packetSent:vector(packetBytes) ETV
attr interpolationmode none
attr source packetSent
attr title "packets sent, vector(packetBytes)"
vector 254 AODVgrayhole.host[15].wlan[0].mac rcvdPkFromHl:vector(packetBytes) ETV
attr interpolationmode none
attr source packetReceivedFromUpper
attr title "packets received from higher layer, vector(packetBytes)"
vector 255 AODVgrayhole.host[15].wlan[0].mac.queue packetPushed:vector(packetBytes) ETV
attr interpolationmode none
attr title "packet pushed, vector(packetBytes)"
vector 256 AODVgrayhole.host[15].wlan[0].mac.queue queueLength:vector ETV
attr interpolationmode sample-hold
attr source "count(packetPushed) - count(packetPopped) - count(packetRemoved) - count(packetDropped)"
attr title "queue length, vector"
vector 257 AODVgrayhole.host[15].wlan[0].mac.queue packetPopped:vector(packetBytes) ETV
attr interpolationmode none
attr title "packet popped, vector(packetBytes)"
vector 258 AODVgrayhole.host[15].wlan[0].mac.queue queueingTime:vector ETV
attr interpolationmode none
attr source queueingTime(packetPopped)
attr title "queueing times, vector"
attr unit s
vector 259 AODVgrayhole.host[15].wlan[0].mac sentDownPk:vector(packetBytes) ETV
attr interpolationmode none
attr source packetSentToLower
attr title "packets sent to lower layer, vector(packetBytes)"
vector 260 AODVgrayhole.host[12].udp packetSent:vector(packetBytes) ETV
attr interpolationmode none
attr source packetSent
attr title "packets sent, vector(packetBytes)"
vector 261 AODVgrayhole.host[12].wlan[0].mac rcvdPkFromHl:vector(packetBytes) ETV
attr interpolationmode none
attr source packetReceivedFromUpper
attr title "packets received from higher layer, vector(packetBytes)"
vector 262 AODVgrayhole.host[12].wlan[0].mac.queue packetPushed:vector(packetBytes) ETV
attr interpolationmode none
attr title "packet pushed, vector(packetBytes)"
vector 263 AODVgrayhole.host[12].wlan[0].mac.queue queueLength:vector ETV
attr interpolationmode sample-hold
attr source "count(packetPushed) - count(packetPopped) - count(packetRemoved) - count(packetDropped)"
attr title "queue length, vector"
vector 264 AODVgrayhole.host[12].wlan[0].mac.queue packetPopped:vector(packetBytes) ETV
attr interpolationmode none
attr title "packet popped, vector(packetBytes)"
vector 265 AODVgrayhole.host[12].wlan[0].mac.queue queueingTime:vector ETV
attr interpolationmode none
attr source queueingTime(packetPopped)
attr title "queueing times, vector"
attr unit s
vector 266 AODVgrayhole.host[12].wlan[0].mac sentDownPk:vector(packetBytes) ETV
attr interpolationmode none
attr source packetSentToLower
attr title "packets sent to lower layer, vector(packetBytes)"
vector 267 AODVgrayhole.host[4].udp packetSent:vector(packetBytes) ETV
attr interpolationmode none
attr source packetSent
attr title "packets sent, vector(packetBytes)"
vector 268 AODVgrayhole.host[4].wlan[0].mac rcvdPkFromHl:vector(packetBytes) ETV
attr interpolationmode none
attr source packetReceivedFromUpper
attr title "packets received from higher layer, vector(packetBytes)"
vector 269 AODVgrayhole.host[4].wlan[0].mac.queue packetPushed:vector(packetBytes) ETV
attr interpolationmode none
attr title "packet pushed, vector(packetBytes)"
vector 270 AODVgrayhole.host[4].wlan[0].mac.queue queueLength:vector ETV
attr interpolationmode sample-hold
attr source "count(packetPushed) - count(packetPopped) - count(packetRemoved) - count(packetDropped)"
attr title "queue length, vector"
vector 271 AODVgrayhole.host[4].wlan[0].mac.queue packetPopped:vector(packetBytes) ETV
attr interpolationmode none
attr title "packet popped, vector(packetBytes)"
vector 272 AODVgrayhole.host[4].wlan[0].mac.queue queueingTime:vector ETV
attr interpolationmode none
attr source queueingTime(packetPopped)
attr title "queueing times, vector"
attr unit s
vector 273 AODVgrayhole.host[4].wlan[0].mac sentDownPk:vector(packetBytes) ETV
attr interpolationmode none
attr source packetSentToLower
attr title "packets sent to lower layer, vector(packetBytes)"
vector 274 AODVgrayhole.host[17].udp packetReceived:vector(packetBytes) ETV
attr interpolationmode none
attr source packetReceived
attr title "packets received, vector(packetBytes)"
vector 275 AODVgrayhole.host[17].udp passedUpPk:vector(count) ETV
attr interpolationmode none
attr source packetSentToUpper
attr title "packets passed up, vector(count)"
vector 276 AODVgrayhole.host[13].udp packetSent:vector(packetBytes) ETV
attr interpolationmode none
attr source packetSent
attr title "packets sent, vector(packetBytes)"
vector 277 AODVgrayhole.host[13].wlan[0].mac rcvdPkFromHl:vector(packetBytes) ETV
attr interpolationmode none
attr source packetReceivedFromUpper
attr title "packets received from higher layer, vector(packetBytes)"
vector 278 AODVgrayhole.host[13].wlan[0].mac.queue packetPushed:vector(packetBytes) ETV
attr interpolationmode none
attr title "packet pushed, vector(packetBytes)"
vector 279 AODVgrayhole.host[13].wlan[0].mac.queue queueLength:vector ETV
attr interpolationmode sample-hold
attr source "count(packetPushed) - count(packetPopped) - count(packetRemoved) - count(packetDropped)"
attr title "queue length, vector"
vector 280 AODVgrayhole.host[13].wlan[0].mac.queue packetPopped:vector(packetBytes) ETV
attr interpolationmode none
attr title "packet popped, vector(packetBytes)"
vector 281 AODVgrayhole.host[13].wlan[0].mac.queue queueingTime:vector ETV
attr interpolationmode none
attr source queueingTime(packetPopped)
attr title "queueing times, vector"
attr unit s
vector 282 AODVgrayhole.host[13].wlan[0].mac sentDownPk:vector(packetBytes) ETV
attr interpolationmode none
attr source packetSentToLower
attr title "packets sent to lower layer, vector(packetBytes)"
vector 283 AODVgrayhole.host[11].wlan[0].mac packetDropNotAddressedToUs:vector(packetBytes) ETV
attr interpolationmode none
attr source packetDropReasonIsNotAddressedToUs(packetDropped)
attr title "packet drop: not addressed to us, vector(packetBytes)"
vector 284 AODVgrayhole.host[10].wlan[0].mac packetDropNotAddressedToUs:vector(packetBytes) ETV
attr interpolationmode none
attr source packetDropReasonIsNotAddressedToUs(packetDropped)
attr title "packet drop: not addressed to us, vector(packetBytes)"
vector 285 AODVgrayhole.host[4].wlan[0].mac packetDropNotAddressedToUs:vector(packetBytes) ETV
attr interpolationmode none
attr source packetDropReasonIsNotAddressedToUs(packetDropped)
attr title "packet drop: not addressed to us, vector(packetBytes)"
vector 286 AODVgrayhole.host[1].wlan[0].mac packetDropNotAddressedToUs:vector(packetBytes) ETV
attr interpolationmode none
attr source packetDropReasonIsNotAddressedToUs(packetDropped)
attr title "packet drop: not addressed to us, vector(packetBytes)"
vector 287 AODVgrayhole.sender.wlan[0].mac packetDropNotAddressedToUs:vector(packetBytes) ETV
attr interpolationmode none
attr source packetDropReasonIsNotAddressedToUs(packetDropped)
attr title "packet drop: not addressed to us, vector(packetBytes)"
vector 288 AODVgrayhole.host[12].wlan[0].mac packetDropNotAddressedToUs:vector(packetBytes) ETV
attr interpolationmode none
attr source packetDropReasonIsNotAddressedToUs(packetDropped)
attr title "packet drop: not addressed to us, vector(packetBytes)"
vector 289 AODVgrayhole.host[0].udp packetSent:vector(packetBytes) ETV
attr interpolationmode none
attr source packetSent
attr title "packets sent, vector(packetBytes)"
vector 290 AODVgrayhole.host[0].wlan[0].mac rcvdPkFromHl:vector(packetBytes) ETV
attr interpolationmode none
attr source packetReceivedFromUpper
attr title "packets received from higher layer, vector(packetBytes)"
vector 291 AODVgrayhole.host[0].wlan[0].mac.queue packetPushed:vector(packetBytes) ETV
attr interpolationmode none
attr title "packet pushed, vector(packetBytes)"
vector 292 AODVgrayhole.host[0].wlan[0].mac.queue queueLength:vector ETV
attr interpolationmode sample-hold
attr source "count(packetPushed) - count(packetPopped) - count(packetRemoved) - count(packetDropped)"
attr title "queue length, vector"
vector 293 AODVgrayhole.host[0].wlan[0].mac.queue packetPopped:vector(packetBytes) ETV
attr interpolationmode none
attr title "packet popped, vector(packetBytes)"
vector 294 AODVgrayhole.host[0].wlan[0].mac.queue queueingTime:vector ETV
attr interpolationmode none
attr source queueingTime(packetPopped)
attr title "queueing times, vector"
attr unit s
vector 295 AODVgrayhole.host[0].wlan[0].mac sentDownPk:vector(packetBytes) ETV
attr interpolationmode none
attr source packetSentToLower
attr title "packets sent to lower layer, vector(packetBytes)"
vector 296 AODVgrayhole.host[14].udp packetSent:vector(packetBytes) ETV
attr interpolationmode none
attr source packetSent
attr title "packets sent, vector(packetBytes)"
vector 297 AODVgrayhole.host[14].wlan[0].mac rcvdPkFromHl:vector(packetBytes) ETV
attr interpolationmode none
attr source packetReceivedFromUpper
attr title "packets received from higher layer, vector(packetBytes)"
vector 298 AODVgrayhole.host[14].wlan[0].mac.queue packetPushed:vector(packetBytes) ETV
attr interpolationmode none
attr title "packet pushed, vector(packetBytes)"
vector 299 AODVgrayhole.host[14].wlan[0].mac.queue queueLength:vector ETV
attr interpolationmode sample-hold
attr source "count(packetPushed) - count(packetPopped) - count(packetRemoved) - count(packetDropped)"
attr title "queue length, vector"
vector 300 AODVgrayhole.host[14].wlan[0].mac.queue packetPopped:vector(packetBytes) ETV
attr interpolationmode none
attr title "packet popped, vector(packetBytes)"
vector 301 AODVgrayhole.host[14].wlan[0].mac.queue queueingTime:vector ETV
attr interpolationmode none
attr source queueingTime(packetPopped)
attr title "queueing times, vector"
attr unit s
vector 302 AODVgrayhole.host[14].wlan[0].mac sentDownPk:vector(packetBytes) ETV
attr interpolationmode none
attr source packetSentToLower
attr title "packets sent to lower layer, vector(packetBytes)"
vector 303 AODVgrayhole.host[17].udp packetSent:vector(packetBytes) ETV
attr interpolationmode none
attr source packetSent
attr title "packets sent, vector(packetBytes)"
vector 304 AODVgrayhole.host[17].wlan[0].mac rcvdPkFromHl:vector(packetBytes) ETV
attr interpolationmode none
attr source packetReceivedFromUpper
attr title "packets received from higher layer, vector(packetBytes)"
vector 305 AODVgrayhole.host[17].wlan[0].mac.queue packetPushed:vector(packetBytes) ETV
attr interpolationmode none
attr title "packet pushed, vector(packetBytes)"
vector 306 AODVgrayhole.host[17].wlan[0].mac.queue queueLength:vector ETV
attr interpolationmode sample-hold
attr source "count(packetPushed) - count(packetPopped) - count(packetRemoved) - count(packetDropped)"
attr title "queue length, vector"
vector 307 AODVgrayhole.host[17].wlan[0].mac.queue packetPopped:vector(packetBytes) ETV
attr interpolationmode none
attr title "packet popped, vector(packetBytes)"
vector 308 AODVgrayhole.host[17].wlan[0].mac.queue queueingTime:vector ETV
attr interpolationmode none
attr source queueingTime(packetPopped)
attr title "queueing times, vector"
attr unit s
vector 309 AODVgrayhole.host[17].wlan[0].mac sentDownPk:vector(packetBytes) ETV
attr interpolationmode none
attr source packetSentToLower
attr title "packets sent to lower layer, vector(packetBytes)"
vector 310 AODVgrayhole.host[7].ipv4.arp arpReplySent:vector(packetBytes) ETV
attr source arpReplySent
attr title "ARP replies sent, vector(packetBytes)"
vector 311 AODVgrayhole.host[2].wlan[0].mac packetDropNotAddressedToUs:vector(packetBytes) ETV
attr interpolationmode none
attr source packetDropReasonIsNotAddressedToUs(packetDropped)
attr title "packet drop: not addressed to us, vector(packetBytes)"
vector 312 AODVgrayhole.host[7].ipv4.arp arpRequestSent:vector(packetBytes) ETV
attr source arpRequestSent
attr title "ARP request sent, vector(packetBytes)"
vector 313 AODVgrayhole.sender.ipv4.arp arpReplySent:vector(packetBytes) ETV
attr source arpReplySent
attr title "ARP replies sent, vector(packetBytes)"
vector 314 AODVgrayhole.ntu_Grayholer.wlan[0].mac packetDropNotAddressedToUs:vector(packetBytes) ETV
attr interpolationmode none
attr source packetDropReasonIsNotAddressedToUs(packetDropped)
attr title "packet drop: not addressed to us, vector(packetBytes)"
vector 315 AODVgrayhole.ntu_Grayholer.ipv4.ip rcvdPkt:vector ETV
attr interpolationmode none
attr title "Number of packet received, vector"
vector 316 AODVgrayhole.ntu_Grayholer.ipv4.ip droppings:vector ETV
attr interpolationmode none
attr title "Number of drops, vector"
vector 317 AODVgrayhole.host[5].ipv4.arp arpReplySent:vector(packetBytes) ETV
attr source arpReplySent
attr title "ARP replies sent, vector(packetBytes)"
vector 318 AODVgrayhole.host[3].wlan[0].mac packetDropNotAddressedToUs:vector(packetBytes) ETV
attr interpolationmode none
attr source packetDropReasonIsNotAddressedToUs(packetDropped)
attr title "packet drop: not addressed to us, vector(packetBytes)"
vector 319 AODVgrayhole.host[6].wlan[0].mac packetDropNotAddressedToUs:vector(packetBytes) ETV
attr interpolationmode none
attr source packetDropReasonIsNotAddressedToUs(packetDropped)
attr title "packet drop: not addressed to us, vector(packetBytes)"
vector 320 AODVgrayhole.host[13].wlan[0].mac packetDropNotAddressedToUs:vector(packetBytes) ETV
attr interpolationmode none
attr source packetDropReasonIsNotAddressedToUs(packetDropped)
attr title "packet drop: not addressed to us, vector(packetBytes)"
vector 321 AODVgrayhole.host[0].wlan[0].mac packetDropNotAddressedToUs:vector(packetBytes) ETV
attr interpolationmode none
attr source packetDropReasonIsNotAddressedToUs(packetDropped)
attr title "packet drop: not addressed to us, vector(packetBytes)"
vector 322 AODVgrayhole.host[14].wlan[0].mac packetDropNotAddressedToUs:vector(packetBytes) ETV
attr interpolationmode none
attr source packetDropReasonIsNotAddressedToUs(packetDropped)
attr title "packet drop: not addressed to us, vector(packetBytes)"
vector 323 AODVgrayhole.host[5].ipv4.arp arpRequestSent:vector(packetBytes) ETV
attr source arpRequestSent
attr title "ARP request sent, vector(packetBytes)"
vector 324 AODVgrayhole.host[15].ipv4.arp arpReplySent:vector(packetBytes) ETV
attr source arpReplySent
attr title "ARP replies sent, vector(packetBytes)"
vector 325 AODVgrayhole.receiver.wlan[0].mac packetDropNotAddressedToUs:vector(packetBytes) ETV
attr interpolationmode none
attr source packetDropReasonIsNotAddressedToUs(packetDropped)
attr title "packet drop: not addressed to us, vector(packetBytes)"
vector 326 AODVgrayhole.host[15].ipv4.arp arpRequestSent:vector(packetBytes) ETV
attr source arpRequestSent
attr title "ARP request sent, vector(packetBytes)"
vector 327 AODVgrayhole.host[5].wlan[0].mac packetDropNotAddressedToUs:vector(packetBytes) ETV
attr interpolationmode none
attr source packetDropReasonIsNotAddressedToUs(packetDropped)
attr title "packet drop: not addressed to us, vector(packetBytes)"
vector 328 AODVgrayhole.ntu_Grayholer.ipv4.arp arpReplySent:vector(packetBytes) ETV
attr source arpReplySent
attr title "ARP replies sent, vector(packetBytes)"
vector 329 AODVgrayhole.sender.ipv4.arp arpRequestSent:vector(packetBytes) ETV
attr source arpRequestSent
attr title "ARP request sent, vector(packetBytes)"
vector 330 AODVgrayhole.host[11].ipv4.arp arpReplySent:vector(packetBytes) ETV
attr source arpReplySent
attr title "ARP replies sent, vector(packetBytes)"
vector 331 AODVgrayhole.host[3].ipv4.arp arpReplySent:vector(packetBytes) ETV
attr source arpReplySent
attr title "ARP replies sent, vector(packetBytes)"
vector 332 AODVgrayhole.host[11].ipv4.arp arpRequestSent:vector(packetBytes) ETV
attr source arpRequestSent
attr title "ARP request sent, vector(packetBytes)"
vector 333 AODVgrayhole.host[3].ipv4.arp arpRequestSent:vector(packetBytes) ETV
attr source arpRequestSent
attr title "ARP request sent, vector(packetBytes)"
vector 334 AODVgrayhole.host[9].ipv4.arp arpReplySent:vector(packetBytes) ETV
attr source arpReplySent
attr title "ARP replies sent, vector(packetBytes)"
vector 335 AODVgrayhole.host[16].ipv4.arp arpReplySent:vector(packetBytes) ETV
attr source arpReplySent
attr title "ARP replies sent, vector(packetBytes)"
vector 336 AODVgrayhole.host[13].ipv4.arp arpReplySent:vector(packetBytes) ETV
attr source arpReplySent
attr title "ARP replies sent, vector(packetBytes)"
vector 337 AODVgrayhole.host[9].ipv4.arp arpRequestSent:vector(packetBytes) ETV
attr source arpRequestSent
attr title "ARP request sent, vector(packetBytes)"
vector 338 AODVgrayhole.host[16].ipv4.arp arpRequestSent:vector(packetBytes) ETV
attr source arpRequestSent
attr title "ARP request sent, vector(packetBytes)"
vector 339 AODVgrayhole.receiver.app[0] packetReceived:vector(packetBytes) ETV
attr interpolationmode none
attr source packetReceived
attr title "packets received, vector(packetBytes)"
vector 340 AODVgrayhole.receiver.app[0] throughput:vector ETV
attr source throughput(packetReceived)
attr title "throughput, vector"
attr unit bps
vector 341 AODVgrayhole.receiver.app[0] endToEndDelay:vector ETV
attr interpolationmode none
attr source dataAge(packetReceived)
attr title "end-to-end delay, vector"
attr unit s
vector 342 AODVgrayhole.receiver.app[0] rcvdPkSeqNo:vector ETV
attr interpolationmode none
attr source appPkSeqNo(packetReceived)
attr title "received packet sequence number, vector"
vector 343 AODVgrayhole.host[2].ipv4.arp arpRequestSent:vector(packetBytes) ETV
attr source arpRequestSent
attr title "ARP request sent, vector(packetBytes)"
vector 344 AODVgrayhole.ntu_Grayholer.ipv4.ip packetDropHopLimitReached:vector(packetBytes) ETV
attr interpolationmode none
attr source packetDropReasonIsHopLimitReached(packetDropped)
attr title "packet drop: hop limit reached, vector(packetBytes)"
vector 345 AODVgrayhole.host[6].ipv4.arp arpRequestSent:vector(packetBytes) ETV
attr source arpRequestSent
attr title "ARP request sent, vector(packetBytes)"
vector 346 AODVgrayhole.host[13].ipv4.arp arpRequestSent:vector(packetBytes) ETV
attr source arpRequestSent
attr title "ARP request sent, vector(packetBytes)"
vector 347 AODVgrayhole.host[0].ipv4.arp arpRequestSent:vector(packetBytes) ETV
attr source arpRequestSent
attr title "ARP request sent, vector(packetBytes)"
vector 348 AODVgrayhole.host[8].ipv4.arp arpRequestSent:vector(packetBytes) ETV
attr source arpRequestSent
attr title "ARP request sent, vector(packetBytes)"
vector 349 AODVgrayhole.host[12].ipv4.arp arpReplySent:vector(packetBytes) ETV
attr source arpReplySent
attr title "ARP replies sent, vector(packetBytes)"
vector 350 AODVgrayhole.host[1].ipv4.arp arpReplySent:vector(packetBytes) ETV
attr source arpReplySent
attr title "ARP replies sent, vector(packetBytes)"
vector 351 AODVgrayhole.host[8].ipv4.arp arpReplySent:vector(packetBytes) ETV
attr source arpReplySent
attr title "ARP replies sent, vector(packetBytes)"
vector 352 AODVgrayhole.host[1].ipv4.arp arpRequestSent:vector(packetBytes) ETV
attr source arpRequestSent
attr title "ARP request sent, vector(packetBytes)"
vector 353 AODVgrayhole.host[12].ipv4.arp arpRequestSent:vector(packetBytes) ETV
attr source arpRequestSent
attr title "ARP request sent, vector(packetBytes)"
vector 354 AODVgrayhole.host[0].ipv4.arp arpReplySent:vector(packetBytes) ETV
attr source arpReplySent
attr title "ARP replies sent, vector(packetBytes)"
vector 355 AODVgrayhole.sender.app[0] throughput:vector ETV
attr source throughput(packetReceived)
attr title "throughput, vector"
attr unit bps
0	0	0	0
0	0	0	0
0	0	0	4
1	0	0	0
1	0	0	0
1	0	0	4
2	0	0	0
2	0	0	0
2	0	0	4
3	0	0	0
3	0	0	0
3	0	0	4
4	0	0	0
4	0	0	0
4	0	0	4
4	25418	25.5	0
5	0	0	0
5	0	0	0
5	0	0	4
6	0	0	0
6	0	0	0
6	0	0	4
7	0	0	0
7	0	0	0
7	0	0	4
7	25419	25.5	0
8	0	0	0
8	0	0	0
8	0	0	4
9	0	0	0
9	0	0	0
9	0	0	4
10	0	0	0
10	0	0	0
10	0	0	4
10	25416	25.5	0
11	0	0	0
11	0	0	0
11	0	0	4
12	0	0	0
12	0	0	0
12	0	0	4
13	0	0	0
13	0	0	0
13	0	0	4
14	0	0	0
14	0	0	0
14	0	0	4
14	25420	25.5	0
15	0	0	0
15	0	0	0
15	0	0	4
15	25415	25.5	0
16	0	0	0
16	0	0	0
16	0	0	4
16	25414	25.5	0
17	0	0	0
17	0	0	0
17	0	0	4
17	25417	25.5	0
18	0	0	0
18	0	0	0
18	0	0	4
19	0	0	0
19	0	0	0
19	0	0	4
20	0	0	0
20	0	0	0
20	0	0	4
21	0	0	1
21	1168	0.327899571358	3
21	1255	0.328247571358	2
21	1293	0.328248535773	3
21	1427	0.328500535773	2
21	1457	0.328683185151	1
21	1493	0.328775554762	3
21	1522	0.329123554762	1
21	1579	0.329262270622	3
21	1665	0.329610270622	1
21	2151	0.805681410113	3
21	2212	0.806029410113	1
21	2551	0.808337295544	3
21	2613	0.808685295544	2
21	2677	0.808979827587	1
21	2801	0.809330184898	3
21	2921	0.809678184898	1
21	3057	0.809935703853	3
21	3259	0.810283703853	2
21	3304	0.810382084967	1
21	3523	0.812822002455	3
21	3584	0.813170002455	1
21	4381	1.328248535773	3
21	4408	1.328500535773	1
21	4421	1.328501097878	3
21	4459	1.328753097878	1
21	4482	1.328754062293	3
21	4513	1.329086062293	1
21	4523	1.329086825553	3
21	4561	1.329418825553	1
21	4590	1.330351049381	3
21	4622	1.330603049381	1
21	4655	1.330603912364	3
21	4695	1.330855912364	1
21	4708	1.330856400981	3
21	4735	1.331188400981	1
21	4756	1.331189076781	3
21	4789	1.331521076781	1
21	4828	1.335060432397	3
21	4874	1.335312432397	1
21	4950	1.335565618609	3
21	4987	1.335897618609	1
21	5006	1.335898211715	3
21	5042	1.336230211715	1
21	5260	1.339647579002	3
21	5330	1.339899579002	1
21	5421	1.340152627612	3
21	5484	1.340484627612	1
21	5567	1.341268382251	3
21	5642	1.341616382251	1
21	5662	1.341616766684	3
21	5727	1.341868766684	1
21	5759	1.342728024784	3
21	5818	1.343076024784	1
21	6166	1.344701119706	3
21	6224	1.345049119706	1
21	6269	1.345050392186	3
21	6322	1.345302392186	1
21	6333	1.345302677604	3
21	6425	1.345554677604	1
21	6451	1.345555950084	3
21	6478	1.345887950084	1
21	6624	1.34633514001	3
21	6739	1.34668314001	1
21	6796	1.348073395265	3
21	6882	1.348325395265	1
21	6910	1.348326250791	3
21	6998	1.348578250791	1
21	8232	2.01131591375	3
21	8306	2.01166391375	1
21	8739	2.332549250045	3
21	8797	2.332897250045	1
21	8892	2.33413589001	3
21	8966	2.33448389001	2
21	8996	2.334511713501	1
21	9025	2.334513182767	3
21	9082	2.334765182767	1
21	9088	2.334765232771	3
21	9200	2.335017232771	2
21	9227	2.335018702037	3
21	9435	2.335350702037	1
21	9561	2.336446663605	3
21	9721	2.336794663605	2
21	9738	2.336829396729	1
21	10117	2.341616766684	3
21	10144	2.341868766684	1
21	10350	2.348073395265	3
21	10375	2.348325395265	1
21	10405	2.348326250791	3
21	10447	2.348578250791	1
21	10451	2.348578318253	3
21	10485	2.348910318253	1
21	10524	2.349706021711	3
21	10561	2.349958021711	1
21	10579	2.349958406144	3
21	10704	2.350290406144	1
21	10774	2.438392463648	3
21	10803	2.438756463648	1
21	10972	3.349706021711	3
21	11007	3.349958021711	1
21	11086	3.350211437831	3
21	11116	3.350543437831	1
21	11143	3.350544145891	3
21	11172	3.350876145891	1
21	15187	13.007348774741	3
21	15281	13.007696774741	1
21	15382	13.008994956555	3
21	15477	13.009342956555	1
21	16755	14.324389054811	3
21	16850	14.324737054811	1
21	16902	14.324837609947	3
21	16948	14.325185609947	2
21	16997	14.325187079213	3
21	17094	14.325519079213	1
21	17357	14.326726194174	3
21	17440	14.327074194174	2
21	17562	14.327415024965	1
21	17581	14.327501546665	3
21	17738	14.327849546665	2
21	17856	14.328017686938	1
21	17950	14.328332086391	3
21	18036	14.328680086391	1
21	18122	14.427036119692	3
21	18151	14.427400119692	1
21	18724	14.80405222667	3
21	18855	14.80440022667	1
21	18972	14.805515652206	3
21	19101	14.805863652206	2
21	19142	14.805865121472	3
21	19214	14.806197121472	2
21	19253	14.806200204657	1
21	19336	14.807261553639	3
21	19390	14.807609553639	2
21	19441	14.807943216504	1
21	19521	14.808880454221	3
21	19591	14.809228454221	1
21	19981	14.813806023049	3
21	20095	14.814154023049	1
21	20351	14.816152502423	3
21	20449	14.816500502423	1
21	20584	14.908771485851	3
21	20613	14.909103485851	1
21	20851	15.012284471977	3
21	20901	15.012632471977	1
21	20945	15.012720077251	3
21	21006	15.013068077251	1
21	21315	15.328769367115	3
21	21376	15.329117367115	1
21	21399	15.329213821735	3
21	21436	15.329561821735	1
21	21474	15.32956278615	3
21	21554	15.32989478615	2
21	21623	15.330084075447	1
21	21649	15.330625271268	3
21	21695	15.330973271268	1
21	21801	15.331335303274	3
21	21876	15.331667303274	1
21	21989	15.332149454291	3
21	22093	15.332497454291	2
21	22143	15.332559499305	1
21	22633	15.335414015437	3
21	22669	15.335746015437	1
21	22797	15.338047064047	3
21	22838	15.340347064047	1
21	22851	15.340347552664	3
21	22885	15.342647552664	1
21	23241	17.006902670741	3
21	23277	17.009202670741	1
21	23290	17.009203159358	3
21	23317	17.011503159358	1
21	23571	18.006902670741	3
21	23607	18.009202670741	1
21	23620	18.009203159358	3
21	23647	18.011503159358	1
21	23974	19.006902670741	3
21	24010	19.009202670741	1
21	24023	19.009203159358	3
21	24050	19.011503159358	1
21	24269	20.006902670741	3
21	24305	20.009202670741	1
21	24318	20.009203159358	3
21	24345	20.011503159358	1
21	24596	21.006902670741	3
21	24632	21.009202670741	1
21	24645	21.009203159358	3
21	24672	21.011503159358	1
21	25026	23.006902670741	3
21	25063	23.009202670741	1
21	25076	23.009203159358	3
21	25103	23.011503159358	1
21	25773	26.332001389287	3
21	25831	26.332349389287	1
21	25934	26.333265134815	3
21	25988	26.333613134815	1
21	26019	26.333614407295	3
21	26088	26.333946407295	1
21	26131	26.334695640594	3
21	26152	26.335043640594	1
21	26194	26.335075098453	3
21	26226	26.335423098453	1
21	26433	26.338469931434	3
21	26458	26.338721931434	1
21	26524	26.338975535898	3
21	26549	26.339307535898	1
21	26934	26.347652876306	3
21	27020	26.348000876306	1
21	27044	26.350713926456	3
21	27098	26.351061926456	2
21	27129	26.351063198936	3
21	27154	26.351395198936	2
21	27174	26.351407027951	1
21	27518	26.453120182558	3
21	27547	26.453516182558	1
21	29411	34.332970659976	3
21	29440	34.333318659976	1
21	29471	34.333319932456	3
21	29521	34.333651932456	1
21	29544	34.333744826845	3
21	29601	34.334076826845	1
21	29645	34.334318643472	3
21	29750	34.334666643472	2
21	29771	34.334742211077	1
21	29947	34.335304120412	3
21	30014	34.335652120412	1
21	30366	34.438117691655	3
21	30395	34.438481691655	1
21	30426	34.438482964135	3
21	30457	34.438782964135	1
21	36686	49.332682608309	3
21	36743	49.333030608309	2
21	36769	49.333031572724	3
21	36811	49.333363572724	1
21	36832	49.333558364247	3
21	36865	49.333906364247	1
21	36888	49.335299092804	3
21	36909	49.335647092804	1
21	37074	49.436066798029	3
21	37103	49.436430798029	1
21	37251	49.814440314369	3
21	37284	49.814788314369	1
21	37420	49.815927228669	3
21	37558	49.816275228669	2
21	37573	49.816275790774	3
21	37645	49.816607790774	1
21	37664	49.816671253131	3
21	37693	49.817019253131	1
21	37786	49.817875599811	3
21	37819	49.818223599811	1
21	37911	49.820067171933	3
21	37932	49.820415171933	1
21	38794	49.916275790774	3
21	38826	49.916623790774	1
21	38857	49.920431033062	3
21	38889	49.920763033062	1
21	39240	50.140187226933	3
21	39269	50.140535226933	1
21	39318	50.14209457804	3
21	39375	50.14244257804	1
21	39399	50.142662770038	3
21	39428	50.143010770038	1
21	39636	50.146241852245	3
21	39669	50.146589852245	1
21	39696	50.146678780282	3
21	39768	50.147026780282	1
21	39777	50.147026780579	3
21	39966	50.147278780579	2
21	39998	50.14727939289	3
21	40089	50.14753139289	1
21	40091	50.147531406818	3
21	40150	50.147863406818	1
21	40167	50.147864005498	3
21	40240	50.148196005498	1
21	40242	50.148196019426	3
21	40276	50.148528019426	1
21	42168	50.247027744697	3
21	42194	50.247359744697	1
21	42217	50.248276706	3
21	42248	50.248528706	1
21	42253	50.248528706297	3
21	42353	50.248860706297	2
21	42363	50.248860776581	1
21	42520	50.251229887374	3
21	42550	50.251561887374	1
21	42687	50.34878235661	3
21	42732	50.34911435661	1
21	42913	50.350672420285	3
21	43045	50.351004420285	2
21	43114	50.35130098772	1
21	43428	50.35831825034	3
21	43485	50.35866625034	1
21	43647	50.358988075189	3
21	43761	50.359336075189	1
21	43877	50.362419388766	3
21	43910	50.362767388766	1
21	56827	59.386241695291	3
21	56859	59.386589695291	1
21	56885	59.386590659706	3
21	56913	59.386922659706	1
21	56981	59.387386767908	3
21	57074	59.387734767908	1
21	57259	59.389893993617	3
21	57313	59.390241993617	2
21	57345	59.390399714008	1
21	57364	59.390778489452	3
21	57397	59.391126489452	1
21	57439	59.493235753446	3
21	57471	59.493567753446	1
21	58609	63.332555026491	3
21	58638	63.332903026491	1
21	58669	63.332904298971	3
21	58694	63.333236298971	1
21	58718	63.334288078129	3
21	58751	63.334636078129	1
21	58774	63.334909324845	3
21	58795	63.335257324845	1
21	58862	63.335855968739	3
21	58916	63.336203968739	1
21	58944	63.337883041456	3
21	58967	63.338215041456	1
21	59253	63.345530153006	3
21	59328	63.345878153006	1
21	59354	63.345879117421	3
21	59398	63.346211117421	1
21	59417	63.346730679542	3
21	59442	63.347078679542	1
21	59473	63.347367954454	3
21	59498	63.347715954454	1
21	59681	63.447064983873	3
21	59710	63.447428983873	1
21	61414	74.333672667574	3
21	61447	74.334020667574	1
21	61581	74.335316486226	3
21	61613	74.335664486226	1
21	61639	74.335665450641	3
21	61667	74.335997450641	1
21	61687	74.336279959009	3
21	61741	74.336627959009	2
21	61794	74.336820199738	1
21	61914	74.337838524759	3
21	61937	74.338170524759	1
21	62279	74.34339545449	3
21	62304	74.34374345449	1
21	62428	74.346356089495	3
21	62486	74.346704089495	2
21	62508	74.34670505391	3
21	62576	74.34703705391	1
21	63033	74.450034349481	3
21	63063	74.450398349481	1
21	63842	76.33132545093	3
21	63932	76.33167345093	1
21	63954	76.331674415345	3
21	64056	76.332006415345	1
21	64171	76.33348071992	3
21	64204	76.33382871992	1
21	64229	76.333962302571	3
21	64308	76.334310302571	2
21	64370	76.334584394585	1
21	64385	76.335366864518	3
21	64406	76.335714864518	1
21	64463	76.435994991402	3
21	64495	76.436358991402	1
21	64521	76.436359955817	3
21	64552	76.436659955817	1
21	64699	76.814060590673	3
21	64723	76.814392590673	1
21	65053	76.818905133742	3
[...]
355	114452	72.3	0
355	114452	72.4	0
355	114452	72.5	0
355	114452	72.6	0
355	114452	72.7	0
355	114452	72.8	0
355	114452	72.9	0
355	114452	73	0
355	114452	73.1	0
355	114452	73.2	0
355	114452	73.3	0
355	114452	73.4	0
355	114452	73.5	0
355	114452	73.6	0
355	114452	73.7	0
355	114452	73.8	0
355	114452	73.9	0
355	114452	74	0
355	114452	74.1	0
355	114452	74.2	0
355	114452	74.3	0
355	114452	74.4	0
355	114452	74.5	0
355	114452	74.6	0
355	114452	74.7	0
355	114452	74.8	0
355	114452	74.9	0
355	114452	75	0
355	114452	75.1	0
355	114452	75.2	0
355	114452	75.3	0
355	114452	75.4	0
355	114452	75.5	0
355	114452	75.6	0
355	114452	75.7	0
355	114452	75.8	0
355	114452	75.9	0
355	114452	76	0
355	114452	76.1	0
355	114452	76.2	0
355	114452	76.3	0
355	114452	76.4	0
355	114452	76.5	0
355	114452	76.6	0
355	114452	76.7	0
355	114452	76.8	0
355	114452	76.9	0
355	114452	77	0
355	114452	77.1	0
355	114452	77.2	0
355	114452	77.3	0
355	114452	77.4	0
355	114452	77.5	0
355	114452	77.6	0
355	114452	77.7	0
355	114452	77.8	0
355	114452	77.9	0
355	114452	78	0
355	114452	78.1	0
355	114452	78.2	0
355	114452	78.3	0
355	114452	78.4	0
355	114452	78.5	0
355	114452	78.6	0
355	114452	78.7	0
355	114452	78.8	0
355	114452	78.9	0
355	114452	79	0
355	114452	79.1	0
355	114452	79.2	0
355	114452	79.3	0
355	114452	79.4	0
355	114452	79.5	0
355	114452	79.6	0
355	114452	79.7	0
355	114452	79.8	0
355	114452	79.9	0
355	114452	80	0
355	114452	80.1	0
355	114452	80.2	0
355	114452	80.3	0
355	114452	80.4	0
355	114452	80.5	0
355	114452	80.6	0
355	114452	80.7	0
355	114452	80.8	0
355	114452	80.9	0
355	114452	81	0
355	114452	81.1	0
355	114452	81.2	0
355	114452	81.3	0
355	114452	81.4	0
355	114452	81.5	0
355	114452	81.6	0
355	114452	81.7	0
355	114452	81.8	0
355	114452	81.9	0
355	114452	82	0
355	114452	82.1	0
355	114452	82.2	0
355	114452	82.3	0
355	114452	82.4	0
355	114452	82.5	0
355	114452	82.6	0
355	114452	82.7	0
355	114452	82.8	0
355	114452	82.9	0
355	114452	83	0
355	114452	83.1	0
355	114452	83.2	0
355	114452	83.3	0
355	114452	83.4	0
355	114452	83.5	0
355	114452	83.6	0
355	114452	83.7	0
355	114452	83.8	0
355	114452	83.9	0
355	114452	84	0
355	114452	84.1	0
355	114452	84.2	0
355	114452	84.3	0
355	114452	84.4	0
355	114452	84.5	0
355	114452	84.6	0
355	114452	84.7	0
355	114452	84.8	0
355	114452	84.9	0
355	114452	85	0
355	114452	85.1	0
355	114452	85.2	0
355	114452	85.3	0
355	114452	85.4	0
355	114452	85.5	0
355	114452	85.6	0
355	114452	85.7	0
355	114452	85.8	0
355	114452	85.9	0
355	114452	86	0
355	114452	86.1	0
355	114452	86.2	0
355	114452	86.3	0
355	114452	86.4	0
355	114452	86.5	0
355	114452	86.6	0
355	114452	86.7	0
355	114452	86.8	0
355	114452	86.9	0
355	114452	87	0
355	114452	87.1	0
355	114452	87.2	0
355	114452	87.3	0
355	114452	87.4	0
355	114452	87.5	0
355	114452	87.6	0
355	114452	87.7	0
355	114452	87.8	0
355	114452	87.9	0
355	114452	88	0
355	114452	88.1	0
355	114452	88.2	0
355	114452	88.3	0
355	114452	88.4	0
355	114452	88.5	0
355	114452	88.6	0
355	114452	88.7	0
355	114452	88.8	0
355	114452	88.9	0
355	114452	89	0
355	114452	89.1	0
355	114452	89.2	0
355	114452	89.3	0
355	114452	89.4	0
355	114452	89.5	0
355	114452	89.6	0
355	114452	89.7	0
355	114452	89.8	0
355	114452	89.9	0
355	114452	90	0
355	114452	90.1	0
355	114452	90.2	0
355	114452	90.3	0
355	114452	90.4	0
355	114452	90.5	0
355	114452	90.6	0
355	114452	90.7	0
355	114452	90.8	0
355	114452	90.9	0
355	114452	91	0
355	114452	91.1	0
355	114452	91.2	0
355	114452	91.3	0
355	114452	91.4	0
355	114452	91.5	0
355	114452	91.6	0
355	114452	91.7	0
355	114452	91.8	0
355	114452	91.9	0
355	114452	92	0
355	114452	92.1	0
355	114452	92.2	0
355	114452	92.3	0
355	114452	92.4	0
355	114452	92.5	0
355	114452	92.6	0
355	114452	92.7	0
355	114452	92.8	0
355	114452	92.9	0
355	114452	93	0
355	114452	93.1	0
355	114452	93.2	0
355	114452	93.3	0
355	114452	93.4	0
355	114452	93.5	0
355	114452	93.6	0
355	114452	93.7	0
355	114452	93.8	0
355	114452	93.9	0
355	114452	94	0
355	114452	94.1	0
355	114452	94.2	0
355	114452	94.3	0
355	114452	94.4	0
355	114452	94.5	0
355	114452	94.6	0
355	114452	94.7	0
355	114452	94.8	0
355	114452	94.9	0
355	114452	95	0
355	114452	95.1	0
355	114452	95.2	0
355	114452	95.3	0
355	114452	95.4	0
355	114452	95.5	0
355	114452	95.6	0
355	114452	95.7	0
355	114452	95.8	0
355	114452	95.9	0
355	114452	96	0
355	114452	96.1	0
355	114452	96.2	0
355	114452	96.3	0
355	114452	96.4	0
355	114452	96.5	0
355	114452	96.6	0
355	114452	96.7	0
355	114452	96.8	0
355	114452	96.9	0
355	114452	97	0
355	114452	97.1	0
355	114452	97.2	0
355	114452	97.3	0
355	114452	97.4	0
355	114452	97.5	0
355	114452	97.6	0
355	114452	97.7	0
355	114452	97.8	0
355	114452	97.9	0
355	114452	98	0
355	114452	98.1	0
355	114452	98.2	0
355	114452	98.3	0
355	114452	98.4	0
355	114452	98.5	0
355	114452	98.6	0
355	114452	98.7	0
355	114452	98.8	0
355	114452	98.9	0
355	114452	99	0
355	114452	99.1	0
355	114452	99.2	0
355	114452	99.3	0
355	114452	99.4	0
355	114452	99.5	0
355	114452	99.6	0
355	114452	99.7	0
355	114452	99.8	0
355	114452	99.9	0
355	114452	100	0
355	114452	100.1	0
355	114452	100.2	0
355	114452	100.3	0
355	114452	100.4	0
355	114452	100.5	0
355	114452	100.6	0
355	114452	100.7	0
355	114452	100.8	0
355	114452	100.9	0
355	114452	101	0
355	114452	101.1	0
355	114452	101.2	0
355	114452	101.3	0
355	114452	101.4	0
355	114452	101.5	0
355	114452	101.6	0
355	114452	101.7	0
355	114452	101.8	0
355	114452	101.9	0
355	114452	102	0
355	114452	102.1	0
355	114452	102.2	0
355	114452	102.3	0
355	114452	102.4	0
355	114452	102.5	0
355	114452	102.6	0
355	114452	102.7	0
355	114452	102.8	0
355	114452	102.9	0
355	114452	103	0
355	114452	103.1	0
355	114452	103.2	0
355	114452	103.3	0
355	114452	103.4	0
355	114452	103.5	0
355	114452	103.6	0
355	114452	103.7	0
355	114452	103.8	0
355	114452	103.9	0
355	114452	104	0
355	114452	104.1	0
355	114452	104.2	0
355	114452	104.3	0
355	114452	104.4	0
355	114452	104.5	0
355	114452	104.6	0
355	114452	104.7	0
355	114452	104.8	0
355	114452	104.9	0
355	114452	105	0
355	114452	105.1	0
355	114452	105.2	0
355	114452	105.3	0
355	114452	105.4	0
355	114452	105.5	0
355	114452	105.6	0
355	114452	105.7	0
355	114452	105.8	0
355	114452	105.9	0
355	114452	106	0
355	114452	106.1	0
355	114452	106.2	0
355	114452	106.3	0
355	114452	106.4	0
355	114452	106.5	0
355	114452	106.6	0
355	114452	106.7	0
355	114452	106.8	0
355	114452	106.9	0
355	114452	107	0
355	114452	107.1	0
355	114452	107.2	0
355	114452	107.3	0
355	114452	107.4	0
355	114452	107.5	0
355	114452	107.6	0
355	114452	107.7	0
355	114452	107.8	0
355	114452	107.9	0
355	114452	108	0
355	114452	108.1	0
355	114452	108.2	0
355	114452	108.3	0
355	114452	108.4	0
355	114452	108.5	0
355	114452	108.6	0
355	114452	108.7	0
355	114452	108.8	0
355	114452	108.9	0
355	114452	109	0
355	114452	109.1	0
355	114452	109.2	0
355	114452	109.3	0
355	114452	109.4	0
355	114452	109.5	0
355	114452	109.6	0
355	114452	109.7	0
355	114452	109.8	0
355	114452	109.9	0
355	114452	110	0
355	114452	110.1	0
355	114452	110.2	0
355	114452	110.3	0
355	114452	110.4	0
355	114452	110.5	0
355	114452	110.6	0
355	114452	110.7	0
355	114452	110.8	0
355	114452	110.9	0
355	114452	111	0
355	114452	111.1	0
355	114452	111.2	0
355	114452	111.3	0
355	114452	111.4	0
355	114452	111.5	0
355	114452	111.6	0
355	114452	111.7	0
355	114452	111.8	0
355	114452	111.9	0
355	114452	112	0
355	114452	112.1	0
355	114452	112.2	0
355	114452	112.3	0
355	114452	112.4	0
355	114452	112.5	0
355	114452	112.6	0
355	114452	112.7	0
355	114452	112.8	0
355	114452	112.9	0
355	114452	113	0
355	114452	113.1	0
355	114452	113.2	0
355	114452	113.3	0
355	114452	113.4	0
355	114452	113.5	0
355	114452	113.6	0
355	114452	113.7	0
355	114452	113.8	0
355	114452	113.9	0
355	114452	114	0
355	114452	114.1	0
355	114452	114.2	0
355	114452	114.3	0
355	114452	114.4	0
355	114452	114.5	0
355	114452	114.6	0
355	114452	114.7	0
355	114452	114.8	0
355	114452	114.9	0
355	114452	115	0
355	114452	115.1	0
355	114452	115.2	0
355	114452	115.3	0
355	114452	115.4	0
355	114452	115.5	0
355	114452	115.6	0
355	114452	115.7	0
355	114452	115.8	0
355	114452	115.9	0
355	114452	116	0
355	114452	116.1	0
355	114452	116.2	0
355	114452	116.3	0
355	114452	116.4	0
355	114452	116.5	0
355	114452	116.6	0
355	114452	116.7	0
355	114452	116.8	0
355	114452	116.9	0
355	114452	117	0
355	114452	117.1	0
355	114452	117.2	0
355	114452	117.3	0
355	114452	117.4	0
355	114452	117.5	0
355	114452	117.6	0
355	114452	117.7	0
355	114452	117.8	0
355	114452	117.9	0
355	114452	118	0
355	114452	118.1	0
355	114452	118.2	0
355	114452	118.3	0
355	114452	118.4	0
355	114452	118.5	0
355	114452	118.6	0
355	114452	118.7	0
355	114452	118.8	0
355	114452	118.9	0
355	114452	119	0
355	114452	119.1	0
355	114452	119.2	0
355	114452	119.3	0
355	114452	119.4	0
355	114452	119.5	0
355	114452	119.6	0
355	114452	119.7	0
355	114452	119.8	0
355	114452	119.9	0
355	114452	120	0
355	114452	120.1	0
355	114452	120.2	0
355	114452	120.3	0
355	114452	120.4	0
355	114452	120.5	0
355	114452	120.6	0
355	114452	120.7	0
355	114452	120.8	0
355	114452	120.9	0
355	114452	121	0
355	114452	121.1	0
355	114452	121.2	0
355	114452	121.3	0
355	114452	121.4	0
355	114452	121.5	0
355	114452	121.6	0
355	114452	121.7	0
355	114452	121.8	0
355	114452	121.9	0
355	114452	122	0
355	114452	122.1	0
355	114452	122.2	0
355	114452	122.3	0
355	114452	122.4	0
355	114452	122.5	0
355	114452	122.6	0
355	114452	122.7	0
355	114452	122.8	0
355	114452	122.9	0
355	114452	123	0
355	114452	123.1	0
355	114452	123.2	0
355	114452	123.3	0
355	114452	123.4	0
355	114452	123.5	0
355	114452	123.6	0
355	114452	123.7	0
355	114452	123.8	0
355	114452	123.9	0
355	114452	124	0
355	114452	124.1	0
355	114452	124.2	0
355	114452	124.3	0
355	114452	124.4	0
355	114452	124.5	0
355	114452	124.6	0
355	114452	124.7	0
355	114452	124.8	0
355	114452	124.9	0
355	114452	125	0
355	114452	125.1	0
355	114452	125.2	0
355	114452	125.3	0
355	114452	125.4	0
355	114452	125.5	0
355	114452	125.6	0
355	114452	125.7	0
355	114452	125.8	0
355	114452	125.9	0
355	114452	126	0
355	114452	126.1	0
355	114452	126.2	0
355	114452	126.3	0
355	114452	126.4	0
355	114452	126.5	0
355	114452	126.6	0
355	114452	126.7	0
355	114452	126.8	0
355	114452	126.9	0
355	114452	127	0
355	114452	127.1	0
355	114452	127.2	0
355	114452	127.3	0
355	114452	127.4	0
355	114452	127.5	0
355	114452	127.6	0
355	114452	127.7	0
355	114452	127.8	0
355	114452	127.9	0
355	114452	128	0
355	114452	128.1	0
355	114452	128.2	0
355	114452	128.3	0
355	114452	128.4	0
355	114452	128.5	0
355	114452	128.6	0
355	114452	128.7	0
355	114452	128.8	0
355	114452	128.9	0
355	114452	129	0
355	114452	129.1	0
355	114452	129.2	0
355	114452	129.3	0
355	114452	129.4	0
355	114452	129.5	0
355	114452	129.6	0
355	114452	129.7	0
355	114452	129.8	0
355	114452	129.9	0
355	114452	130	0
355	114452	130.1	0
355	114452	130.2	0
355	114452	130.3	0
355	114452	130.4	0
355	114452	130.5	0
355	114452	130.6	0
355	114452	130.7	0
355	114452	130.8	0
355	114452	130.9	0
355	114452	131	0
355	114452	131.1	0
355	114452	131.2	0
355	114452	131.3	0
355	114452	131.4	0
355	114452	131.5	0
355	114452	131.6	0
355	114452	131.7	0
355	114452	131.8	0
355	114452	131.9	0
355	114452	132	0
355	114452	132.1	0
355	114452	132.2	0
355	114452	132.3	0
355	114452	132.4	0
355	114452	132.5	0
355	114452	132.6	0
355	114452	132.7	0
355	114452	132.8	0
355	114452	132.9	0
355	114452	133	0
355	114452	133.1	0
355	114452	133.2	0
355	114452	133.3	0
355	114452	133.4	0
355	114452	133.5	0
355	114452	133.6	0
355	114452	133.7	0
355	114452	133.8	0
355	114452	133.9	0
355	114452	134	0
355	114452	134.1	0
355	114452	134.2	0
355	114452	134.3	0
355	114452	134.4	0
355	114452	134.5	0
355	114452	134.6	0
355	114452	134.7	0
355	114452	134.8	0
355	114452	134.9	0
355	114452	135	0
355	114452	135.1	0
355	114452	135.2	0
355	114452	135.3	0
355	114452	135.4	0
355	114452	135.5	0
355	114452	135.6	0
355	114452	135.7	0
355	114452	135.8	0
355	114452	135.9	0
355	114452	136	0
355	114452	136.1	0
355	114452	136.2	0
355	114452	136.3	0
355	114452	136.4	0
355	114452	136.5	0
355	114452	136.6	0
355	114452	136.7	0
355	114452	136.8	0
355	114452	136.9	0
355	114452	137	0
355	114452	137.1	0
355	114452	137.2	0
355	114452	137.3	0
355	114452	137.4	0
355	114452	137.5	0
355	114452	137.6	0
355	114452	137.7	0
355	114452	137.8	0
355	114452	137.9	0
355	114452	138	0
355	114452	138.1	0
355	114452	138.2	0
355	114452	138.3	0
355	114452	138.4	0
355	114452	138.5	0
355	114452	138.6	0
355	114452	138.7	0
355	114452	138.8	0
355	114452	138.9	0
355	114452	139	0
355	114452	139.1	0
355	114452	139.2	0
355	114452	139.3	0
355	114452	139.4	0
355	114452	139.5	0
355	114452	139.6	0
355	114452	139.7	0
355	114452	139.8	0
355	114452	139.9	0
355	114452	140	0
355	114452	140.1	0
355	114452	140.2	0
355	114452	140.3	0
355	114452	140.4	0
355	114452	140.5	0
355	114452	140.6	0
355	114452	140.7	0
355	114452	140.8	0
355	114452	140.9	0
355	114452	141	0
355	114452	141.1	0
355	114452	141.2	0
355	114452	141.3	0
355	114452	141.4	0
355	114452	141.5	0
355	114452	141.6	0
355	114452	141.7	0
355	114452	141.8	0
355	114452	141.9	0
355	114452	142	0
355	114452	142.1	0
355	114452	142.2	0
355	114452	142.3	0
355	114452	142.4	0
355	114452	142.5	0
355	114452	142.6	0
355	114452	142.7	0
355	114452	142.8	0
355	114452	142.9	0
355	114452	143	0
355	114452	143.1	0
355	114452	143.2	0
355	114452	143.3	0
355	114452	143.4	0
355	114452	143.5	0
355	114452	143.6	0
355	114452	143.7	0
355	114452	143.8	0
355	114452	143.9	0
355	114452	144	0
355	114452	144.1	0
355	114452	144.2	0
355	114452	144.3	0
355	114452	144.4	0
355	114452	144.5	0
355	114452	144.6	0
355	114452	144.7	0
355	114452	144.8	0
355	114452	144.9	0
355	114452	145	0
355	114452	145.1	0
355	114452	145.2	0
355	114452	145.3	0
355	114452	145.4	0
355	114452	145.5	0
355	114452	145.6	0
355	114452	145.7	0
355	114452	145.8	0
355	114452	145.9	0
355	114452	146	0
355	114452	146.1	0
355	114452	146.2	0
355	114452	146.3	0
355	114452	146.4	0
355	114452	146.5	0
355	114452	146.6	0
355	114452	146.7	0
355	114452	146.8	0
355	114452	146.9	0
355	114452	147	0
355	114452	147.1	0
355	114452	147.2	0
355	114452	147.3	0
355	114452	147.4	0
355	114452	147.5	0
355	114452	147.6	0
355	114452	147.7	0
355	114452	147.8	0
355	114452	147.9	0
355	114452	148	0
355	114452	148.1	0
355	114452	148.2	0
355	114452	148.3	0
355	114452	148.4	0
355	114452	148.5	0
355	114452	148.6	0
355	114452	148.7	0
355	114452	148.8	0
355	114452	148.9	0
355	114452	149	0
355	114452	149.1	0
355	114452	149.2	0
355	114452	149.3	0
355	114452	149.4	0
355	114452	149.5	0
355	114452	149.6	0
355	114452	149.7	0
355	114452	149.8	0
355	114452	149.9	0
355	114452	150	0
355	114452	150.1	0
355	114452	150.2	0
355	114452	150.3	0
355	114452	150.4	0
355	114452	150.5	0
355	114452	150.6	0
355	114452	150.7	0
355	114452	150.8	0
355	114452	150.9	0
355	114452	151	0
355	114452	151.1	0
355	114452	151.2	0
355	114452	151.3	0
355	114452	151.4	0
355	114452	151.5	0
355	114452	151.6	0
355	114452	151.7	0
355	114452	151.8	0
355	114452	151.9	0
355	114452	152	0
355	114452	152.1	0
355	114452	152.2	0
355	114452	152.3	0
355	114452	152.4	0
355	114452	152.5	0
355	114452	152.6	0
355	114452	152.7	0
355	114452	152.8	0
355	114452	152.9	0
355	114452	153	0
355	114452	153.1	0
355	114452	153.2	0
355	114452	153.3	0
355	114452	153.4	0
355	114452	153.5	0
355	114452	153.6	0
355	114452	153.7	0
355	114452	153.8	0
355	114452	153.9	0
355	114452	154	0
355	114452	154.1	0
355	114452	154.2	0
355	114452	154.3	0
355	114452	154.4	0
355	114452	154.5	0
355	114452	154.6	0
355	114452	154.7	0
355	114452	154.8	0
355	114452	154.9	0
355	114452	155	0
355	114452	155.1	0
355	114452	155.2	0
355	114452	155.3	0
355	114452	155.4	0
355	114452	155.5	0
355	114452	155.6	0
355	114452	155.7	0
355	114452	155.8	0
355	114452	155.9	0
355	114452	156	0
355	114452	156.1	0
355	114452	156.2	0
355	114452	156.3	0
355	114452	156.4	0
355	114452	156.5	0
355	114452	156.6	0
355	114452	156.7	0
355	114452	156.8	0
355	114452	156.9	0
355	114452	157	0
355	114452	157.1	0
355	114452	157.2	0
355	114452	157.3	0
355	114452	157.4	0
355	114452	157.5	0
355	114452	157.6	0
355	114452	157.7	0
355	114452	157.8	0
355	114452	157.9	0
355	114452	158	0
355	114452	158.1	0
355	114452	158.2	0
355	114452	158.3	0
355	114452	158.4	0
355	114452	158.5	0
355	114452	158.6	0
355	114452	158.7	0
355	114452	158.8	0
355	114452	158.9	0
355	114452	159	0
355	114452	159.1	0
355	114452	159.2	0
355	114452	159.3	0
355	114452	159.4	0
355	114452	159.5	0
355	114452	159.6	0
355	114452	159.7	0
355	114452	159.8	0
355	114452	159.9	0
355	114452	160	0
355	114452	160.1	0
355	114452	160.2	0
355	114452	160.3	0
355	114452	160.4	0
355	114452	160.5	0
355	114452	160.6	0
355	114452	160.7	0
355	114452	160.8	0
355	114452	160.9	0
355	114452	161	0
355	114452	161.1	0
355	114452	161.2	0
355	114452	161.3	0
355	114452	161.4	0
355	114452	161.5	0
355	114452	161.6	0
355	114452	161.7	0
355	114452	161.8	0
355	114452	161.9	0
355	114452	162	0
355	114452	162.1	0
355	114452	162.2	0
355	114452	162.3	0
355	114452	162.4	0
355	114452	162.5	0
355	114452	162.6	0
355	114452	162.7	0
355	114452	162.8	0
355	114452	162.9	0
355	114452	163	0
355	114452	163.1	0
355	114452	163.2	0
355	114452	163.3	0
355	114452	163.4	0
355	114452	163.5	0
355	114452	163.6	0
355	114452	163.7	0
355	114452	163.8	0
355	114452	163.9	0
355	114452	164	0
355	114452	164.1	0
355	114452	164.2	0
355	114452	164.3	0
355	114452	164.4	0
355	114452	164.5	0
355	114452	164.6	0
355	114452	164.7	0
355	114452	164.8	0
355	114452	164.9	0
355	114452	165	0
355	114452	165.1	0
355	114452	165.2	0
355	114452	165.3	0
355	114452	165.4	0
355	114452	165.5	0
355	114452	165.6	0
355	114452	165.7	0
355	114452	165.8	0
355	114452	165.9	0
355	114452	166	0
355	114452	166.1	0
355	114452	166.2	0
355	114452	166.3	0
355	114452	166.4	0
355	114452	166.5	0
355	114452	166.6	0
355	114452	166.7	0
355	114452	166.8	0
355	114452	166.9	0
355	114452	167	0
355	114452	167.1	0
355	114452	167.2	0
355	114452	167.3	0
355	114452	167.4	0
355	114452	167.5	0
355	114452	167.6	0
355	114452	167.7	0
355	114452	167.8	0
355	114452	167.9	0
355	114452	168	0
355	114452	168.1	0
355	114452	168.2	0
355	114452	168.3	0
355	114452	168.4	0
355	114452	168.5	0
355	114452	168.6	0
355	114452	168.7	0
355	114452	168.8	0
355	114452	168.9	0
355	114452	169	0
355	114452	169.1	0
355	114452	169.2	0
355	114452	169.3	0
355	114452	169.4	0
355	114452	169.5	0
355	114452	169.6	0
355	114452	169.7	0
355	114452	169.8	0
355	114452	169.9	0
355	114452	170	0
355	114452	170.1	0
355	114452	170.2	0
355	114452	170.3	0
355	114452	170.4	0
355	114452	170.5	0
355	114452	170.6	0
355	114452	170.7	0
355	114452	170.8	0
355	114452	170.9	0
355	114452	171	0
355	114452	171.1	0
355	114452	171.2	0
355	114452	171.3	0
355	114452	171.4	0
355	114452	171.5	0
355	114452	171.6	0
355	114452	171.7	0
355	114452	171.8	0
355	114452	171.9	0
355	114452	172	0
355	114452	172.1	0
355	114452	172.2	0
355	114452	172.3	0
355	114452	172.4	0
355	114452	172.5	0
355	114452	172.6	0
355	114452	172.7	0
355	114452	172.8	0
355	114452	172.9	0
355	114452	173	0
355	114452	173.1	0
355	114452	173.2	0
355	114452	173.3	0
355	114452	173.4	0
355	114452	173.5	0
355	114452	173.6	0
355	114452	173.7	0
355	114452	173.8	0
355	114452	173.9	0
355	114452	174	0
355	114452	174.1	0
355	114452	174.2	0
355	114452	174.3	0
355	114452	174.4	0
355	114452	174.5	0
355	114452	174.6	0
355	114452	174.7	0
355	114452	174.8	0
355	114452	174.9	0
355	114452	175	0
355	114452	175.1	0
355	114452	175.2	0
355	114452	175.3	0
355	114452	175.4	0
355	114452	175.5	0
355	114452	175.6	0
355	114452	175.7	0
355	114452	175.8	0
355	114452	175.9	0
355	114452	176	0
355	114452	176.1	0
355	114452	176.2	0
355	114452	176.3	0
355	114452	176.4	0
355	114452	176.5	0
355	114452	176.6	0
355	114452	176.7	0
355	114452	176.8	0
355	114452	176.9	0
355	114452	177	0
355	114452	177.1	0
355	114452	177.2	0
355	114452	177.3	0
355	114452	177.4	0
355	114452	177.5	0
355	114452	177.6	0
355	114452	177.7	0
355	114452	177.8	0
355	114452	177.9	0
355	114452	178	0
355	114452	178.1	0
355	114452	178.2	0
355	114452	178.3	0
355	114452	178.4	0
355	114452	178.5	0
355	114452	178.6	0
355	114452	178.7	0
355	114452	178.8	0
355	114452	178.9	0
355	114452	179	0
355	114452	179.1	0
355	114452	179.2	0
355	114452	179.3	0
355	114452	179.4	0
355	114452	179.5	0
355	114452	179.6	0
355	114452	179.7	0
355	114452	179.8	0
355	114452	179.9	0
355	114452	180	0

