file 1642376 1617424337                                         
version 2
run Static-blackhole-0-20210403-11:32:02-9989
attr configname Static-blackhole
attr datetime 20210403-11:32:02
attr experiment Static-blackhole
attr inifile AODVgrayhole.ini
attr iterationvars ""
attr iterationvarsf ""
attr measurement ""
attr network AODVgrayhole
attr processid 9989
attr repetition 0
attr replication #0
attr resultdir results
attr runnumber 0
attr seedset 0
param *.host[*].wlan[*].radio.transmitter.communicationRange 250m
param **.wlan[*].typename "\"AckingWirelessInterface\""
param **.wlan[*].bitrate 2Mbps
param **.wlan[*].mac.headerLength 23B
param **.wlan[*].radio.typename "\"UnitDiskRadio\""
param **.wlan[*].radio.transmitter.headerLength 96b
param **.wlan[*].radio.transmitter.communicationRange 250m
param **.wlan[*].radio.transmitter.interferenceRange 0m
param **.wlan[*].radio.transmitter.detectionRange 0m
param **.wlan[*].radio.receiver.ignoreInterference true
param *.numHosts 18
param **.host[*].mobility.typename "\"StationaryMobility\""
param **.mobility.constraintAreaMinZ 0m
param **.mobility.constraintAreaMaxZ 0m
param **.mobility.constraintAreaMinX 5m
param **.mobility.constraintAreaMinY 5m
param **.mobility.constraintAreaMaxX 785m
param **.mobility.constraintAreaMaxY 490m
param *.visualizer.sceneVisualizer.descriptionFigure "\"title\""
param *.visualizer.dataLinkVisualizer.displayLinks true
param *.visualizer.networkRouteVisualizer.displayRoutes true
param *.visualizer.networkRouteVisualizer.lineShift 0
param *.visualizer.networkRouteVisualizer.packetFilter "\"UDPData*\""
param *.visualizer.physicalLinkVisualizer.packetFilter "\"UDPData*\""
param *.sender.numApps 1
param *.sender.app[0].typename "\"UdpBasicApp\""
param *.sender.app[0].destAddresses "\"receiver\""
param *.sender.app[0].destPort 1000
param *.sender.app[0].sendInterval 1s
param *.sender.app[0].startTime 0s
param *.sender.app[0].messageLength 512Byte
param *.sender.app[0].packetName "\"UDPdata\""
param *.receiver.numApps 1
param *.receiver.app[0].typename "\"UdpSink\""
param *.receiver.app[0].localPort 1000
param **.hasStatus true

vector 0 AODVgrayhole.host[0].wlan[0].radio radioMode:vector ETV
attr interpolationmode sample-hold
attr source radioModeChanged
attr title "Radio mode, vector"
vector 1 AODVgrayhole.host[1].wlan[0].radio radioMode:vector ETV
attr interpolationmode sample-hold
attr source radioModeChanged
attr title "Radio mode, vector"
vector 2 AODVgrayhole.host[2].wlan[0].radio radioMode:vector ETV
attr interpolationmode sample-hold
attr source radioModeChanged
attr title "Radio mode, vector"
vector 3 AODVgrayhole.host[3].wlan[0].radio radioMode:vector ETV
attr interpolationmode sample-hold
attr source radioModeChanged
attr title "Radio mode, vector"
vector 4 AODVgrayhole.host[4].wlan[0].radio radioMode:vector ETV
attr interpolationmode sample-hold
attr source radioModeChanged
attr title "Radio mode, vector"
vector 5 AODVgrayhole.host[5].wlan[0].radio radioMode:vector ETV
attr interpolationmode sample-hold
attr source radioModeChanged
attr title "Radio mode, vector"
vector 6 AODVgrayhole.host[6].wlan[0].radio radioMode:vector ETV
attr interpolationmode sample-hold
attr source radioModeChanged
attr title "Radio mode, vector"
vector 7 AODVgrayhole.host[7].wlan[0].radio radioMode:vector ETV
attr interpolationmode sample-hold
attr source radioModeChanged
attr title "Radio mode, vector"
vector 8 AODVgrayhole.host[8].wlan[0].radio radioMode:vector ETV
attr interpolationmode sample-hold
attr source radioModeChanged
attr title "Radio mode, vector"
vector 9 AODVgrayhole.host[9].wlan[0].radio radioMode:vector ETV
attr interpolationmode sample-hold
attr source radioModeChanged
attr title "Radio mode, vector"
vector 10 AODVgrayhole.host[10].wlan[0].radio radioMode:vector ETV
attr interpolationmode sample-hold
attr source radioModeChanged
attr title "Radio mode, vector"
vector 11 AODVgrayhole.host[11].wlan[0].radio radioMode:vector ETV
attr interpolationmode sample-hold
attr source radioModeChanged
attr title "Radio mode, vector"
vector 12 AODVgrayhole.host[12].wlan[0].radio radioMode:vector ETV
attr interpolationmode sample-hold
attr source radioModeChanged
attr title "Radio mode, vector"
vector 13 AODVgrayhole.host[13].wlan[0].radio radioMode:vector ETV
attr interpolationmode sample-hold
attr source radioModeChanged
attr title "Radio mode, vector"
vector 14 AODVgrayhole.host[14].wlan[0].radio radioMode:vector ETV
attr interpolationmode sample-hold
attr source radioModeChanged
attr title "Radio mode, vector"
vector 15 AODVgrayhole.host[15].wlan[0].radio radioMode:vector ETV
attr interpolationmode sample-hold
attr source radioModeChanged
attr title "Radio mode, vector"
vector 16 AODVgrayhole.host[16].wlan[0].radio radioMode:vector ETV
attr interpolationmode sample-hold
attr source radioModeChanged
attr title "Radio mode, vector"
vector 17 AODVgrayhole.host[17].wlan[0].radio radioMode:vector ETV
attr interpolationmode sample-hold
attr source radioModeChanged
attr title "Radio mode, vector"
vector 18 AODVgrayhole.sender.wlan[0].radio radioMode:vector ETV
attr interpolationmode sample-hold
attr source radioModeChanged
attr title "Radio mode, vector"
vector 19 AODVgrayhole.receiver.wlan[0].radio radioMode:vector ETV
attr interpolationmode sample-hold
attr source radioModeChanged
attr title "Radio mode, vector"
vector 20 AODVgrayhole.ntu_Grayholer.wlan[0].radio radioMode:vector ETV
attr interpolationmode sample-hold
attr source radioModeChanged
attr title "Radio mode, vector"
vector 21 AODVgrayhole.host[0].wlan[0].radio receptionState:vector ETV
attr interpolationmode sample-hold
attr source receptionStateChanged
attr title "Radio reception state, vector"
vector 22 AODVgrayhole.host[0].wlan[0].radio transmissionState:vector ETV
attr interpolationmode sample-hold
attr source transmissionStateChanged
attr title "Radio transmission state, vector"
vector 23 AODVgrayhole.host[1].wlan[0].radio receptionState:vector ETV
attr interpolationmode sample-hold
attr source receptionStateChanged
attr title "Radio reception state, vector"
vector 24 AODVgrayhole.host[1].wlan[0].radio transmissionState:vector ETV
attr interpolationmode sample-hold
attr source transmissionStateChanged
attr title "Radio transmission state, vector"
vector 25 AODVgrayhole.host[2].wlan[0].radio receptionState:vector ETV
attr interpolationmode sample-hold
attr source receptionStateChanged
attr title "Radio reception state, vector"
vector 26 AODVgrayhole.host[2].wlan[0].radio transmissionState:vector ETV
attr interpolationmode sample-hold
attr source transmissionStateChanged
attr title "Radio transmission state, vector"
vector 27 AODVgrayhole.host[3].wlan[0].radio receptionState:vector ETV
attr interpolationmode sample-hold
attr source receptionStateChanged
attr title "Radio reception state, vector"
vector 28 AODVgrayhole.host[3].wlan[0].radio transmissionState:vector ETV
attr interpolationmode sample-hold
attr source transmissionStateChanged
attr title "Radio transmission state, vector"
vector 29 AODVgrayhole.host[4].wlan[0].radio receptionState:vector ETV
attr interpolationmode sample-hold
attr source receptionStateChanged
attr title "Radio reception state, vector"
vector 30 AODVgrayhole.host[4].wlan[0].radio transmissionState:vector ETV
attr interpolationmode sample-hold
attr source transmissionStateChanged
attr title "Radio transmission state, vector"
vector 31 AODVgrayhole.host[5].wlan[0].radio receptionState:vector ETV
attr interpolationmode sample-hold
attr source receptionStateChanged
attr title "Radio reception state, vector"
vector 32 AODVgrayhole.host[5].wlan[0].radio transmissionState:vector ETV
attr interpolationmode sample-hold
attr source transmissionStateChanged
attr title "Radio transmission state, vector"
vector 33 AODVgrayhole.host[6].wlan[0].radio receptionState:vector ETV
attr interpolationmode sample-hold
attr source receptionStateChanged
attr title "Radio reception state, vector"
vector 34 AODVgrayhole.host[6].wlan[0].radio transmissionState:vector ETV
attr interpolationmode sample-hold
attr source transmissionStateChanged
attr title "Radio transmission state, vector"
vector 35 AODVgrayhole.host[7].wlan[0].radio receptionState:vector ETV
attr interpolationmode sample-hold
attr source receptionStateChanged
attr title "Radio reception state, vector"
vector 36 AODVgrayhole.host[7].wlan[0].radio transmissionState:vector ETV
attr interpolationmode sample-hold
attr source transmissionStateChanged
attr title "Radio transmission state, vector"
vector 37 AODVgrayhole.host[8].wlan[0].radio receptionState:vector ETV
attr interpolationmode sample-hold
attr source receptionStateChanged
attr title "Radio reception state, vector"
vector 38 AODVgrayhole.host[8].wlan[0].radio transmissionState:vector ETV
attr interpolationmode sample-hold
attr source transmissionStateChanged
attr title "Radio transmission state, vector"
vector 39 AODVgrayhole.host[9].wlan[0].radio receptionState:vector ETV
attr interpolationmode sample-hold
attr source receptionStateChanged
attr title "Radio reception state, vector"
vector 40 AODVgrayhole.host[9].wlan[0].radio transmissionState:vector ETV
attr interpolationmode sample-hold
attr source transmissionStateChanged
attr title "Radio transmission state, vector"
vector 41 AODVgrayhole.host[10].wlan[0].radio receptionState:vector ETV
attr interpolationmode sample-hold
attr source receptionStateChanged
attr title "Radio reception state, vector"
vector 42 AODVgrayhole.host[10].wlan[0].radio transmissionState:vector ETV
attr interpolationmode sample-hold
attr source transmissionStateChanged
attr title "Radio transmission state, vector"
vector 43 AODVgrayhole.host[11].wlan[0].radio receptionState:vector ETV
attr interpolationmode sample-hold
attr source receptionStateChanged
attr title "Radio reception state, vector"
vector 44 AODVgrayhole.host[11].wlan[0].radio transmissionState:vector ETV
attr interpolationmode sample-hold
attr source transmissionStateChanged
attr title "Radio transmission state, vector"
vector 45 AODVgrayhole.host[12].wlan[0].radio receptionState:vector ETV
attr interpolationmode sample-hold
attr source receptionStateChanged
attr title "Radio reception state, vector"
vector 46 AODVgrayhole.host[12].wlan[0].radio transmissionState:vector ETV
attr interpolationmode sample-hold
attr source transmissionStateChanged
attr title "Radio transmission state, vector"
vector 47 AODVgrayhole.host[13].wlan[0].radio receptionState:vector ETV
attr interpolationmode sample-hold
attr source receptionStateChanged
attr title "Radio reception state, vector"
vector 48 AODVgrayhole.host[13].wlan[0].radio transmissionState:vector ETV
attr interpolationmode sample-hold
attr source transmissionStateChanged
attr title "Radio transmission state, vector"
vector 49 AODVgrayhole.host[14].wlan[0].radio receptionState:vector ETV
attr interpolationmode sample-hold
attr source receptionStateChanged
attr title "Radio reception state, vector"
vector 50 AODVgrayhole.host[14].wlan[0].radio transmissionState:vector ETV
attr interpolationmode sample-hold
attr source transmissionStateChanged
attr title "Radio transmission state, vector"
vector 51 AODVgrayhole.host[15].wlan[0].radio receptionState:vector ETV
attr interpolationmode sample-hold
attr source receptionStateChanged
attr title "Radio reception state, vector"
vector 52 AODVgrayhole.host[15].wlan[0].radio transmissionState:vector ETV
attr interpolationmode sample-hold
attr source transmissionStateChanged
attr title "Radio transmission state, vector"
vector 53 AODVgrayhole.host[16].wlan[0].radio receptionState:vector ETV
attr interpolationmode sample-hold
attr source receptionStateChanged
attr title "Radio reception state, vector"
vector 54 AODVgrayhole.host[16].wlan[0].radio transmissionState:vector ETV
attr interpolationmode sample-hold
attr source transmissionStateChanged
attr title "Radio transmission state, vector"
vector 55 AODVgrayhole.host[17].wlan[0].radio receptionState:vector ETV
attr interpolationmode sample-hold
attr source receptionStateChanged
attr title "Radio reception state, vector"
vector 56 AODVgrayhole.host[17].wlan[0].radio transmissionState:vector ETV
attr interpolationmode sample-hold
attr source transmissionStateChanged
attr title "Radio transmission state, vector"
vector 57 AODVgrayhole.sender.wlan[0].radio receptionState:vector ETV
attr interpolationmode sample-hold
attr source receptionStateChanged
attr title "Radio reception state, vector"
vector 58 AODVgrayhole.sender.wlan[0].radio transmissionState:vector ETV
attr interpolationmode sample-hold
attr source transmissionStateChanged
attr title "Radio transmission state, vector"
vector 59 AODVgrayhole.receiver.wlan[0].radio receptionState:vector ETV
attr interpolationmode sample-hold
attr source receptionStateChanged
attr title "Radio reception state, vector"
vector 60 AODVgrayhole.receiver.wlan[0].radio transmissionState:vector ETV
attr interpolationmode sample-hold
attr source transmissionStateChanged
attr title "Radio transmission state, vector"
vector 61 AODVgrayhole.ntu_Grayholer.wlan[0].radio receptionState:vector ETV
attr interpolationmode sample-hold
attr source receptionStateChanged
attr title "Radio reception state, vector"
vector 62 AODVgrayhole.ntu_Grayholer.wlan[0].radio transmissionState:vector ETV
attr interpolationmode sample-hold
attr source transmissionStateChanged
attr title "Radio transmission state, vector"
vector 63 AODVgrayhole.sender.app[0] packetSent:vector(packetBytes) ETV
attr interpolationmode none
attr source packetSent
attr title "packets sent, vector(packetBytes)"
vector 64 AODVgrayhole.sender.udp packetSent:vector(packetBytes) ETV
attr interpolationmode none
attr source packetSent
attr title "packets sent, vector(packetBytes)"
vector 65 AODVgrayhole.sender.wlan[0].mac rcvdPkFromHl:vector(packetBytes) ETV
attr interpolationmode none
attr source packetReceivedFromUpper
attr title "packets received from higher layer, vector(packetBytes)"
vector 66 AODVgrayhole.sender.wlan[0].mac.queue packetPushed:vector(packetBytes) ETV
attr interpolationmode none
attr title "packet pushed, vector(packetBytes)"
vector 67 AODVgrayhole.sender.wlan[0].mac.queue queueLength:vector ETV
attr interpolationmode sample-hold
attr source "count(packetPushed) - count(packetPopped) - count(packetRemoved) - count(packetDropped)"
attr title "queue length, vector"
vector 68 AODVgrayhole.sender.wlan[0].mac.queue packetPopped:vector(packetBytes) ETV
attr interpolationmode none
attr title "packet popped, vector(packetBytes)"
vector 69 AODVgrayhole.sender.wlan[0].mac.queue queueingTime:vector ETV
attr interpolationmode none
attr source queueingTime(packetPopped)
attr title "queueing times, vector"
attr unit s
vector 70 AODVgrayhole.sender.wlan[0].mac sentDownPk:vector(packetBytes) ETV
attr interpolationmode none
attr source packetSentToLower
attr title "packets sent to lower layer, vector(packetBytes)"
vector 71 AODVgrayhole.host[10].wlan[0].mac rcvdPkFromLl:vector(packetBytes) ETV
attr interpolationmode none
attr source packetReceivedFromLower
attr title "packets received from lower layer, vector(packetBytes)"
vector 72 AODVgrayhole.host[10].wlan[0].mac passedUpPk:vector(packetBytes) ETV
attr interpolationmode none
attr source packetSentToUpper
attr title "packets passed to higher layer, vector(packetBytes)"
vector 73 AODVgrayhole.host[10].udp packetReceived:vector(packetBytes) ETV
attr interpolationmode none
attr source packetReceived
attr title "packets received, vector(packetBytes)"
vector 74 AODVgrayhole.host[10].udp passedUpPk:vector(count) ETV
attr interpolationmode none
attr source packetSentToUpper
attr title "packets passed up, vector(count)"
vector 75 AODVgrayhole.host[8].wlan[0].mac rcvdPkFromLl:vector(packetBytes) ETV
attr interpolationmode none
attr source packetReceivedFromLower
attr title "packets received from lower layer, vector(packetBytes)"
vector 76 AODVgrayhole.host[8].wlan[0].mac passedUpPk:vector(packetBytes) ETV
attr interpolationmode none
attr source packetSentToUpper
attr title "packets passed to higher layer, vector(packetBytes)"
vector 77 AODVgrayhole.host[8].udp packetReceived:vector(packetBytes) ETV
attr interpolationmode none
attr source packetReceived
attr title "packets received, vector(packetBytes)"
vector 78 AODVgrayhole.host[8].udp passedUpPk:vector(count) ETV
attr interpolationmode none
attr source packetSentToUpper
attr title "packets passed up, vector(count)"
vector 79 AODVgrayhole.host[11].wlan[0].mac rcvdPkFromLl:vector(packetBytes) ETV
attr interpolationmode none
attr source packetReceivedFromLower
attr title "packets received from lower layer, vector(packetBytes)"
vector 80 AODVgrayhole.host[11].wlan[0].mac passedUpPk:vector(packetBytes) ETV
attr interpolationmode none
attr source packetSentToUpper
attr title "packets passed to higher layer, vector(packetBytes)"
vector 81 AODVgrayhole.host[11].udp packetReceived:vector(packetBytes) ETV
attr interpolationmode none
attr source packetReceived
attr title "packets received, vector(packetBytes)"
vector 82 AODVgrayhole.host[11].udp passedUpPk:vector(count) ETV
attr interpolationmode none
attr source packetSentToUpper
attr title "packets passed up, vector(count)"
vector 83 AODVgrayhole.host[2].wlan[0].mac rcvdPkFromLl:vector(packetBytes) ETV
attr interpolationmode none
attr source packetReceivedFromLower
attr title "packets received from lower layer, vector(packetBytes)"
vector 84 AODVgrayhole.host[2].wlan[0].mac passedUpPk:vector(packetBytes) ETV
attr interpolationmode none
attr source packetSentToUpper
attr title "packets passed to higher layer, vector(packetBytes)"
vector 85 AODVgrayhole.host[2].udp packetReceived:vector(packetBytes) ETV
attr interpolationmode none
attr source packetReceived
attr title "packets received, vector(packetBytes)"
vector 86 AODVgrayhole.host[2].udp passedUpPk:vector(count) ETV
attr interpolationmode none
attr source packetSentToUpper
attr title "packets passed up, vector(count)"
vector 87 AODVgrayhole.host[7].wlan[0].mac rcvdPkFromLl:vector(packetBytes) ETV
attr interpolationmode none
attr source packetReceivedFromLower
attr title "packets received from lower layer, vector(packetBytes)"
vector 88 AODVgrayhole.host[7].wlan[0].mac passedUpPk:vector(packetBytes) ETV
attr interpolationmode none
attr source packetSentToUpper
attr title "packets passed to higher layer, vector(packetBytes)"
vector 89 AODVgrayhole.host[7].udp packetReceived:vector(packetBytes) ETV
attr interpolationmode none
attr source packetReceived
attr title "packets received, vector(packetBytes)"
vector 90 AODVgrayhole.host[7].udp passedUpPk:vector(count) ETV
attr interpolationmode none
attr source packetSentToUpper
attr title "packets passed up, vector(count)"
vector 91 AODVgrayhole.host[7].udp packetSent:vector(packetBytes) ETV
attr interpolationmode none
attr source packetSent
attr title "packets sent, vector(packetBytes)"
vector 92 AODVgrayhole.host[7].wlan[0].mac rcvdPkFromHl:vector(packetBytes) ETV
attr interpolationmode none
attr source packetReceivedFromUpper
attr title "packets received from higher layer, vector(packetBytes)"
vector 93 AODVgrayhole.host[7].wlan[0].mac.queue packetPushed:vector(packetBytes) ETV
attr interpolationmode none
attr title "packet pushed, vector(packetBytes)"
vector 94 AODVgrayhole.host[7].wlan[0].mac.queue queueLength:vector ETV
attr interpolationmode sample-hold
attr source "count(packetPushed) - count(packetPopped) - count(packetRemoved) - count(packetDropped)"
attr title "queue length, vector"
vector 95 AODVgrayhole.host[7].wlan[0].mac.queue packetPopped:vector(packetBytes) ETV
attr interpolationmode none
attr title "packet popped, vector(packetBytes)"
vector 96 AODVgrayhole.host[7].wlan[0].mac.queue queueingTime:vector ETV
attr interpolationmode none
attr source queueingTime(packetPopped)
attr title "queueing times, vector"
attr unit s
vector 97 AODVgrayhole.host[7].wlan[0].mac sentDownPk:vector(packetBytes) ETV
attr interpolationmode none
attr source packetSentToLower
attr title "packets sent to lower layer, vector(packetBytes)"
vector 98 AODVgrayhole.host[11].udp packetSent:vector(packetBytes) ETV
attr interpolationmode none
attr source packetSent
attr title "packets sent, vector(packetBytes)"
vector 99 AODVgrayhole.host[11].wlan[0].mac rcvdPkFromHl:vector(packetBytes) ETV
attr interpolationmode none
attr source packetReceivedFromUpper
attr title "packets received from higher layer, vector(packetBytes)"
vector 100 AODVgrayhole.host[11].wlan[0].mac.queue packetPushed:vector(packetBytes) ETV
attr interpolationmode none
attr title "packet pushed, vector(packetBytes)"
vector 101 AODVgrayhole.host[11].wlan[0].mac.queue queueLength:vector ETV
attr interpolationmode sample-hold
attr source "count(packetPushed) - count(packetPopped) - count(packetRemoved) - count(packetDropped)"
attr title "queue length, vector"
vector 102 AODVgrayhole.host[11].wlan[0].mac.queue packetPopped:vector(packetBytes) ETV
attr interpolationmode none
attr title "packet popped, vector(packetBytes)"
vector 103 AODVgrayhole.host[11].wlan[0].mac.queue queueingTime:vector ETV
attr interpolationmode none
attr source queueingTime(packetPopped)
attr title "queueing times, vector"
attr unit s
vector 104 AODVgrayhole.host[11].wlan[0].mac sentDownPk:vector(packetBytes) ETV
attr interpolationmode none
attr source packetSentToLower
attr title "packets sent to lower layer, vector(packetBytes)"
vector 105 AODVgrayhole.host[9].wlan[0].mac rcvdPkFromLl:vector(packetBytes) ETV
attr interpolationmode none
attr source packetReceivedFromLower
attr title "packets received from lower layer, vector(packetBytes)"
vector 106 AODVgrayhole.host[9].wlan[0].mac passedUpPk:vector(packetBytes) ETV
attr interpolationmode none
attr source packetSentToUpper
attr title "packets passed to higher layer, vector(packetBytes)"
vector 107 AODVgrayhole.host[9].udp packetReceived:vector(packetBytes) ETV
attr interpolationmode none
attr source packetReceived
attr title "packets received, vector(packetBytes)"
vector 108 AODVgrayhole.host[9].udp passedUpPk:vector(count) ETV
attr interpolationmode none
attr source packetSentToUpper
attr title "packets passed up, vector(count)"
vector 109 AODVgrayhole.ntu_Grayholer.wlan[0].mac rcvdPkFromLl:vector(packetBytes) ETV
attr interpolationmode none
attr source packetReceivedFromLower
attr title "packets received from lower layer, vector(packetBytes)"
vector 110 AODVgrayhole.ntu_Grayholer.wlan[0].mac passedUpPk:vector(packetBytes) ETV
attr interpolationmode none
attr source packetSentToUpper
attr title "packets passed to higher layer, vector(packetBytes)"
vector 111 AODVgrayhole.ntu_Grayholer.udp packetReceived:vector(packetBytes) ETV
attr interpolationmode none
attr source packetReceived
attr title "packets received, vector(packetBytes)"
vector 112 AODVgrayhole.ntu_Grayholer.udp passedUpPk:vector(count) ETV
attr interpolationmode none
attr source packetSentToUpper
attr title "packets passed up, vector(count)"
vector 113 AODVgrayhole.ntu_Grayholer.udp packetSent:vector(packetBytes) ETV
attr interpolationmode none
attr source packetSent
attr title "packets sent, vector(packetBytes)"
vector 114 AODVgrayhole.ntu_Grayholer.ipv4.arp arpRequestSent:vector(packetBytes) ETV
attr source arpRequestSent
attr title "ARP request sent, vector(packetBytes)"
vector 115 AODVgrayhole.ntu_Grayholer.wlan[0].mac rcvdPkFromHl:vector(packetBytes) ETV
attr interpolationmode none
attr source packetReceivedFromUpper
attr title "packets received from higher layer, vector(packetBytes)"
vector 116 AODVgrayhole.ntu_Grayholer.wlan[0].mac.queue packetPushed:vector(packetBytes) ETV
attr interpolationmode none
attr title "packet pushed, vector(packetBytes)"
vector 117 AODVgrayhole.ntu_Grayholer.wlan[0].mac.queue queueLength:vector ETV
attr interpolationmode sample-hold
attr source "count(packetPushed) - count(packetPopped) - count(packetRemoved) - count(packetDropped)"
attr title "queue length, vector"
vector 118 AODVgrayhole.ntu_Grayholer.wlan[0].mac.queue packetPopped:vector(packetBytes) ETV
attr interpolationmode none
attr title "packet popped, vector(packetBytes)"
vector 119 AODVgrayhole.ntu_Grayholer.wlan[0].mac.queue queueingTime:vector ETV
attr interpolationmode none
attr source queueingTime(packetPopped)
attr title "queueing times, vector"
attr unit s
vector 120 AODVgrayhole.ntu_Grayholer.wlan[0].mac sentDownPk:vector(packetBytes) ETV
attr interpolationmode none
attr source packetSentToLower
attr title "packets sent to lower layer, vector(packetBytes)"
vector 121 AODVgrayhole.host[15].wlan[0].mac rcvdPkFromLl:vector(packetBytes) ETV
attr interpolationmode none
attr source packetReceivedFromLower
attr title "packets received from lower layer, vector(packetBytes)"
vector 122 AODVgrayhole.host[15].wlan[0].mac passedUpPk:vector(packetBytes) ETV
attr interpolationmode none
attr source packetSentToUpper
attr title "packets passed to higher layer, vector(packetBytes)"
vector 123 AODVgrayhole.host[15].udp packetReceived:vector(packetBytes) ETV
attr interpolationmode none
attr source packetReceived
attr title "packets received, vector(packetBytes)"
vector 124 AODVgrayhole.host[15].udp passedUpPk:vector(count) ETV
attr interpolationmode none
attr source packetSentToUpper
attr title "packets passed up, vector(count)"
vector 125 AODVgrayhole.host[1].wlan[0].mac rcvdPkFromLl:vector(packetBytes) ETV
attr interpolationmode none
attr source packetReceivedFromLower
attr title "packets received from lower layer, vector(packetBytes)"
vector 126 AODVgrayhole.host[1].wlan[0].mac passedUpPk:vector(packetBytes) ETV
attr interpolationmode none
attr source packetSentToUpper
attr title "packets passed to higher layer, vector(packetBytes)"
vector 127 AODVgrayhole.host[1].udp packetReceived:vector(packetBytes) ETV
attr interpolationmode none
attr source packetReceived
attr title "packets received, vector(packetBytes)"
vector 128 AODVgrayhole.host[1].udp passedUpPk:vector(count) ETV
attr interpolationmode none
attr source packetSentToUpper
attr title "packets passed up, vector(count)"
vector 129 AODVgrayhole.host[16].wlan[0].mac rcvdPkFromLl:vector(packetBytes) ETV
attr interpolationmode none
attr source packetReceivedFromLower
attr title "packets received from lower layer, vector(packetBytes)"
vector 130 AODVgrayhole.host[16].wlan[0].mac passedUpPk:vector(packetBytes) ETV
attr interpolationmode none
attr source packetSentToUpper
attr title "packets passed to higher layer, vector(packetBytes)"
vector 131 AODVgrayhole.host[16].udp packetReceived:vector(packetBytes) ETV
attr interpolationmode none
attr source packetReceived
attr title "packets received, vector(packetBytes)"
vector 132 AODVgrayhole.host[16].udp passedUpPk:vector(count) ETV
attr interpolationmode none
attr source packetSentToUpper
attr title "packets passed up, vector(count)"
vector 133 AODVgrayhole.host[4].wlan[0].mac rcvdPkFromLl:vector(packetBytes) ETV
attr interpolationmode none
attr source packetReceivedFromLower
attr title "packets received from lower layer, vector(packetBytes)"
vector 134 AODVgrayhole.host[4].wlan[0].mac passedUpPk:vector(packetBytes) ETV
attr interpolationmode none
attr source packetSentToUpper
attr title "packets passed to higher layer, vector(packetBytes)"
vector 135 AODVgrayhole.host[4].udp packetReceived:vector(packetBytes) ETV
attr interpolationmode none
attr source packetReceived
attr title "packets received, vector(packetBytes)"
vector 136 AODVgrayhole.host[4].udp passedUpPk:vector(count) ETV
attr interpolationmode none
attr source packetSentToUpper
attr title "packets passed up, vector(count)"
vector 137 AODVgrayhole.sender.wlan[0].mac rcvdPkFromLl:vector(packetBytes) ETV
attr interpolationmode none
attr source packetReceivedFromLower
attr title "packets received from lower layer, vector(packetBytes)"
vector 138 AODVgrayhole.sender.wlan[0].mac passedUpPk:vector(packetBytes) ETV
attr interpolationmode none
attr source packetSentToUpper
attr title "packets passed to higher layer, vector(packetBytes)"
vector 139 AODVgrayhole.sender.udp packetReceived:vector(packetBytes) ETV
attr interpolationmode none
attr source packetReceived
attr title "packets received, vector(packetBytes)"
vector 140 AODVgrayhole.sender.udp passedUpPk:vector(count) ETV
attr interpolationmode none
attr source packetSentToUpper
attr title "packets passed up, vector(count)"
vector 141 AODVgrayhole.host[17].wlan[0].mac rcvdPkFromLl:vector(packetBytes) ETV
attr interpolationmode none
attr source packetReceivedFromLower
attr title "packets received from lower layer, vector(packetBytes)"
vector 142 AODVgrayhole.host[17].wlan[0].mac passedUpPk:vector(packetBytes) ETV
attr interpolationmode none
attr source packetSentToUpper
attr title "packets passed to higher layer, vector(packetBytes)"
vector 143 AODVgrayhole.host[12].wlan[0].mac rcvdPkFromLl:vector(packetBytes) ETV
attr interpolationmode none
attr source packetReceivedFromLower
attr title "packets received from lower layer, vector(packetBytes)"
vector 144 AODVgrayhole.host[12].wlan[0].mac passedUpPk:vector(packetBytes) ETV
attr interpolationmode none
attr source packetSentToUpper
attr title "packets passed to higher layer, vector(packetBytes)"
vector 145 AODVgrayhole.host[12].udp packetReceived:vector(packetBytes) ETV
attr interpolationmode none
attr source packetReceived
attr title "packets received, vector(packetBytes)"
vector 146 AODVgrayhole.host[12].udp passedUpPk:vector(count) ETV
attr interpolationmode none
attr source packetSentToUpper
attr title "packets passed up, vector(count)"
vector 147 AODVgrayhole.host[10].udp packetSent:vector(packetBytes) ETV
attr interpolationmode none
attr source packetSent
attr title "packets sent, vector(packetBytes)"
vector 148 AODVgrayhole.host[10].wlan[0].mac rcvdPkFromHl:vector(packetBytes) ETV
attr interpolationmode none
attr source packetReceivedFromUpper
attr title "packets received from higher layer, vector(packetBytes)"
vector 149 AODVgrayhole.host[10].wlan[0].mac.queue packetPushed:vector(packetBytes) ETV
attr interpolationmode none
attr title "packet pushed, vector(packetBytes)"
vector 150 AODVgrayhole.host[10].wlan[0].mac.queue queueLength:vector ETV
attr interpolationmode sample-hold
attr source "count(packetPushed) - count(packetPopped) - count(packetRemoved) - count(packetDropped)"
attr title "queue length, vector"
vector 151 AODVgrayhole.host[10].wlan[0].mac.queue packetPopped:vector(packetBytes) ETV
attr interpolationmode none
attr title "packet popped, vector(packetBytes)"
vector 152 AODVgrayhole.host[10].wlan[0].mac.queue queueingTime:vector ETV
attr interpolationmode none
attr source queueingTime(packetPopped)
attr title "queueing times, vector"
attr unit s
vector 153 AODVgrayhole.host[10].wlan[0].mac sentDownPk:vector(packetBytes) ETV
attr interpolationmode none
attr source packetSentToLower
attr title "packets sent to lower layer, vector(packetBytes)"
vector 154 AODVgrayhole.host[8].udp packetSent:vector(packetBytes) ETV
attr interpolationmode none
attr source packetSent
attr title "packets sent, vector(packetBytes)"
vector 155 AODVgrayhole.host[8].wlan[0].mac rcvdPkFromHl:vector(packetBytes) ETV
attr interpolationmode none
attr source packetReceivedFromUpper
attr title "packets received from higher layer, vector(packetBytes)"
vector 156 AODVgrayhole.host[8].wlan[0].mac.queue packetPushed:vector(packetBytes) ETV
attr interpolationmode none
attr title "packet pushed, vector(packetBytes)"
vector 157 AODVgrayhole.host[8].wlan[0].mac.queue queueLength:vector ETV
attr interpolationmode sample-hold
attr source "count(packetPushed) - count(packetPopped) - count(packetRemoved) - count(packetDropped)"
attr title "queue length, vector"
vector 158 AODVgrayhole.host[8].wlan[0].mac.queue packetPopped:vector(packetBytes) ETV
attr interpolationmode none
attr title "packet popped, vector(packetBytes)"
vector 159 AODVgrayhole.host[8].wlan[0].mac.queue queueingTime:vector ETV
attr interpolationmode none
attr source queueingTime(packetPopped)
attr title "queueing times, vector"
attr unit s
vector 160 AODVgrayhole.host[8].wlan[0].mac sentDownPk:vector(packetBytes) ETV
attr interpolationmode none
attr source packetSentToLower
attr title "packets sent to lower layer, vector(packetBytes)"
vector 161 AODVgrayhole.host[2].udp packetSent:vector(packetBytes) ETV
attr interpolationmode none
attr source packetSent
attr title "packets sent, vector(packetBytes)"
vector 162 AODVgrayhole.host[2].wlan[0].mac rcvdPkFromHl:vector(packetBytes) ETV
attr interpolationmode none
attr source packetReceivedFromUpper
attr title "packets received from higher layer, vector(packetBytes)"
vector 163 AODVgrayhole.host[2].wlan[0].mac.queue packetPushed:vector(packetBytes) ETV
attr interpolationmode none
attr title "packet pushed, vector(packetBytes)"
vector 164 AODVgrayhole.host[2].wlan[0].mac.queue queueLength:vector ETV
attr interpolationmode sample-hold
attr source "count(packetPushed) - count(packetPopped) - count(packetRemoved) - count(packetDropped)"
attr title "queue length, vector"
vector 165 AODVgrayhole.host[2].wlan[0].mac.queue packetPopped:vector(packetBytes) ETV
attr interpolationmode none
attr title "packet popped, vector(packetBytes)"
vector 166 AODVgrayhole.host[2].wlan[0].mac.queue queueingTime:vector ETV
attr interpolationmode none
attr source queueingTime(packetPopped)
attr title "queueing times, vector"
attr unit s
vector 167 AODVgrayhole.host[2].wlan[0].mac sentDownPk:vector(packetBytes) ETV
attr interpolationmode none
attr source packetSentToLower
attr title "packets sent to lower layer, vector(packetBytes)"
vector 168 AODVgrayhole.host[1].udp packetSent:vector(packetBytes) ETV
attr interpolationmode none
attr source packetSent
attr title "packets sent, vector(packetBytes)"
vector 169 AODVgrayhole.host[1].wlan[0].mac rcvdPkFromHl:vector(packetBytes) ETV
attr interpolationmode none
attr source packetReceivedFromUpper
attr title "packets received from higher layer, vector(packetBytes)"
vector 170 AODVgrayhole.host[1].wlan[0].mac.queue packetPushed:vector(packetBytes) ETV
attr interpolationmode none
attr title "packet pushed, vector(packetBytes)"
vector 171 AODVgrayhole.host[1].wlan[0].mac.queue queueLength:vector ETV
attr interpolationmode sample-hold
attr source "count(packetPushed) - count(packetPopped) - count(packetRemoved) - count(packetDropped)"
attr title "queue length, vector"
vector 172 AODVgrayhole.host[1].wlan[0].mac.queue packetPopped:vector(packetBytes) ETV
attr interpolationmode none
attr title "packet popped, vector(packetBytes)"
vector 173 AODVgrayhole.host[1].wlan[0].mac.queue queueingTime:vector ETV
attr interpolationmode none
attr source queueingTime(packetPopped)
attr title "queueing times, vector"
attr unit s
vector 174 AODVgrayhole.host[1].wlan[0].mac sentDownPk:vector(packetBytes) ETV
attr interpolationmode none
attr source packetSentToLower
attr title "packets sent to lower layer, vector(packetBytes)"
vector 175 AODVgrayhole.host[12].udp packetSent:vector(packetBytes) ETV
attr interpolationmode none
attr source packetSent
attr title "packets sent, vector(packetBytes)"
vector 176 AODVgrayhole.host[12].wlan[0].mac rcvdPkFromHl:vector(packetBytes) ETV
attr interpolationmode none
attr source packetReceivedFromUpper
attr title "packets received from higher layer, vector(packetBytes)"
vector 177 AODVgrayhole.host[12].wlan[0].mac.queue packetPushed:vector(packetBytes) ETV
attr interpolationmode none
attr title "packet pushed, vector(packetBytes)"
vector 178 AODVgrayhole.host[12].wlan[0].mac.queue queueLength:vector ETV
attr interpolationmode sample-hold
attr source "count(packetPushed) - count(packetPopped) - count(packetRemoved) - count(packetDropped)"
attr title "queue length, vector"
vector 179 AODVgrayhole.host[12].wlan[0].mac.queue packetPopped:vector(packetBytes) ETV
attr interpolationmode none
attr title "packet popped, vector(packetBytes)"
vector 180 AODVgrayhole.host[12].wlan[0].mac.queue queueingTime:vector ETV
attr interpolationmode none
attr source queueingTime(packetPopped)
attr title "queueing times, vector"
attr unit s
vector 181 AODVgrayhole.host[12].wlan[0].mac sentDownPk:vector(packetBytes) ETV
attr interpolationmode none
attr source packetSentToLower
attr title "packets sent to lower layer, vector(packetBytes)"
vector 182 AODVgrayhole.host[9].udp packetSent:vector(packetBytes) ETV
attr interpolationmode none
attr source packetSent
attr title "packets sent, vector(packetBytes)"
vector 183 AODVgrayhole.host[9].wlan[0].mac rcvdPkFromHl:vector(packetBytes) ETV
attr interpolationmode none
attr source packetReceivedFromUpper
attr title "packets received from higher layer, vector(packetBytes)"
vector 184 AODVgrayhole.host[9].wlan[0].mac.queue packetPushed:vector(packetBytes) ETV
attr interpolationmode none
attr title "packet pushed, vector(packetBytes)"
vector 185 AODVgrayhole.host[9].wlan[0].mac.queue queueLength:vector ETV
attr interpolationmode sample-hold
attr source "count(packetPushed) - count(packetPopped) - count(packetRemoved) - count(packetDropped)"
attr title "queue length, vector"
vector 186 AODVgrayhole.host[9].wlan[0].mac.queue packetPopped:vector(packetBytes) ETV
attr interpolationmode none
attr title "packet popped, vector(packetBytes)"
vector 187 AODVgrayhole.host[9].wlan[0].mac.queue queueingTime:vector ETV
attr interpolationmode none
attr source queueingTime(packetPopped)
attr title "queueing times, vector"
attr unit s
vector 188 AODVgrayhole.host[9].wlan[0].mac sentDownPk:vector(packetBytes) ETV
attr interpolationmode none
attr source packetSentToLower
attr title "packets sent to lower layer, vector(packetBytes)"
vector 189 AODVgrayhole.host[6].wlan[0].mac rcvdPkFromLl:vector(packetBytes) ETV
attr interpolationmode none
attr source packetReceivedFromLower
attr title "packets received from lower layer, vector(packetBytes)"
vector 190 AODVgrayhole.host[6].wlan[0].mac passedUpPk:vector(packetBytes) ETV
attr interpolationmode none
attr source packetSentToUpper
attr title "packets passed to higher layer, vector(packetBytes)"
vector 191 AODVgrayhole.host[6].udp packetReceived:vector(packetBytes) ETV
attr interpolationmode none
attr source packetReceived
attr title "packets received, vector(packetBytes)"
vector 192 AODVgrayhole.host[6].udp passedUpPk:vector(count) ETV
attr interpolationmode none
attr source packetSentToUpper
attr title "packets passed up, vector(count)"
vector 193 AODVgrayhole.host[3].wlan[0].mac rcvdPkFromLl:vector(packetBytes) ETV
attr interpolationmode none
attr source packetReceivedFromLower
attr title "packets received from lower layer, vector(packetBytes)"
vector 194 AODVgrayhole.host[3].wlan[0].mac passedUpPk:vector(packetBytes) ETV
attr interpolationmode none
attr source packetSentToUpper
attr title "packets passed to higher layer, vector(packetBytes)"
vector 195 AODVgrayhole.host[3].udp packetReceived:vector(packetBytes) ETV
attr interpolationmode none
attr source packetReceived
attr title "packets received, vector(packetBytes)"
vector 196 AODVgrayhole.host[3].udp passedUpPk:vector(count) ETV
attr interpolationmode none
attr source packetSentToUpper
attr title "packets passed up, vector(count)"
vector 197 AODVgrayhole.host[5].wlan[0].mac rcvdPkFromLl:vector(packetBytes) ETV
attr interpolationmode none
attr source packetReceivedFromLower
attr title "packets received from lower layer, vector(packetBytes)"
vector 198 AODVgrayhole.host[5].wlan[0].mac passedUpPk:vector(packetBytes) ETV
attr interpolationmode none
attr source packetSentToUpper
attr title "packets passed to higher layer, vector(packetBytes)"
vector 199 AODVgrayhole.host[5].udp packetReceived:vector(packetBytes) ETV
attr interpolationmode none
attr source packetReceived
attr title "packets received, vector(packetBytes)"
vector 200 AODVgrayhole.host[5].udp passedUpPk:vector(count) ETV
attr interpolationmode none
attr source packetSentToUpper
attr title "packets passed up, vector(count)"
vector 201 AODVgrayhole.host[16].udp packetSent:vector(packetBytes) ETV
attr interpolationmode none
attr source packetSent
attr title "packets sent, vector(packetBytes)"
vector 202 AODVgrayhole.host[16].wlan[0].mac rcvdPkFromHl:vector(packetBytes) ETV
attr interpolationmode none
attr source packetReceivedFromUpper
attr title "packets received from higher layer, vector(packetBytes)"
vector 203 AODVgrayhole.host[16].wlan[0].mac.queue packetPushed:vector(packetBytes) ETV
attr interpolationmode none
attr title "packet pushed, vector(packetBytes)"
vector 204 AODVgrayhole.host[16].wlan[0].mac.queue queueLength:vector ETV
attr interpolationmode sample-hold
attr source "count(packetPushed) - count(packetPopped) - count(packetRemoved) - count(packetDropped)"
attr title "queue length, vector"
vector 205 AODVgrayhole.host[16].wlan[0].mac.queue packetPopped:vector(packetBytes) ETV
attr interpolationmode none
attr title "packet popped, vector(packetBytes)"
vector 206 AODVgrayhole.host[16].wlan[0].mac.queue queueingTime:vector ETV
attr interpolationmode none
attr source queueingTime(packetPopped)
attr title "queueing times, vector"
attr unit s
vector 207 AODVgrayhole.host[16].wlan[0].mac sentDownPk:vector(packetBytes) ETV
attr interpolationmode none
attr source packetSentToLower
attr title "packets sent to lower layer, vector(packetBytes)"
vector 208 AODVgrayhole.host[13].wlan[0].mac rcvdPkFromLl:vector(packetBytes) ETV
attr interpolationmode none
attr source packetReceivedFromLower
attr title "packets received from lower layer, vector(packetBytes)"
vector 209 AODVgrayhole.host[13].wlan[0].mac passedUpPk:vector(packetBytes) ETV
attr interpolationmode none
attr source packetSentToUpper
attr title "packets passed to higher layer, vector(packetBytes)"
vector 210 AODVgrayhole.host[13].udp packetReceived:vector(packetBytes) ETV
attr interpolationmode none
attr source packetReceived
attr title "packets received, vector(packetBytes)"
vector 211 AODVgrayhole.host[13].udp passedUpPk:vector(count) ETV
attr interpolationmode none
attr source packetSentToUpper
attr title "packets passed up, vector(count)"
vector 212 AODVgrayhole.host[0].wlan[0].mac rcvdPkFromLl:vector(packetBytes) ETV
attr interpolationmode none
attr source packetReceivedFromLower
attr title "packets received from lower layer, vector(packetBytes)"
vector 213 AODVgrayhole.host[0].wlan[0].mac passedUpPk:vector(packetBytes) ETV
attr interpolationmode none
attr source packetSentToUpper
attr title "packets passed to higher layer, vector(packetBytes)"
vector 214 AODVgrayhole.host[0].udp packetReceived:vector(packetBytes) ETV
attr interpolationmode none
attr source packetReceived
attr title "packets received, vector(packetBytes)"
vector 215 AODVgrayhole.host[0].udp passedUpPk:vector(count) ETV
attr interpolationmode none
attr source packetSentToUpper
attr title "packets passed up, vector(count)"
vector 216 AODVgrayhole.host[6].udp packetSent:vector(packetBytes) ETV
attr interpolationmode none
attr source packetSent
attr title "packets sent, vector(packetBytes)"
vector 217 AODVgrayhole.host[6].wlan[0].mac rcvdPkFromHl:vector(packetBytes) ETV
attr interpolationmode none
attr source packetReceivedFromUpper
attr title "packets received from higher layer, vector(packetBytes)"
vector 218 AODVgrayhole.host[6].wlan[0].mac.queue packetPushed:vector(packetBytes) ETV
attr interpolationmode none
attr title "packet pushed, vector(packetBytes)"
vector 219 AODVgrayhole.host[6].wlan[0].mac.queue queueLength:vector ETV
attr interpolationmode sample-hold
attr source "count(packetPushed) - count(packetPopped) - count(packetRemoved) - count(packetDropped)"
attr title "queue length, vector"
vector 220 AODVgrayhole.host[6].wlan[0].mac.queue packetPopped:vector(packetBytes) ETV
attr interpolationmode none
attr title "packet popped, vector(packetBytes)"
vector 221 AODVgrayhole.host[6].wlan[0].mac.queue queueingTime:vector ETV
attr interpolationmode none
attr source queueingTime(packetPopped)
attr title "queueing times, vector"
attr unit s
vector 222 AODVgrayhole.host[6].wlan[0].mac sentDownPk:vector(packetBytes) ETV
attr interpolationmode none
attr source packetSentToLower
attr title "packets sent to lower layer, vector(packetBytes)"
vector 223 AODVgrayhole.host[4].udp packetSent:vector(packetBytes) ETV
attr interpolationmode none
attr source packetSent
attr title "packets sent, vector(packetBytes)"
vector 224 AODVgrayhole.host[4].wlan[0].mac rcvdPkFromHl:vector(packetBytes) ETV
attr interpolationmode none
attr source packetReceivedFromUpper
attr title "packets received from higher layer, vector(packetBytes)"
vector 225 AODVgrayhole.host[4].wlan[0].mac.queue packetPushed:vector(packetBytes) ETV
attr interpolationmode none
attr title "packet pushed, vector(packetBytes)"
vector 226 AODVgrayhole.host[4].wlan[0].mac.queue queueLength:vector ETV
attr interpolationmode sample-hold
attr source "count(packetPushed) - count(packetPopped) - count(packetRemoved) - count(packetDropped)"
attr title "queue length, vector"
vector 227 AODVgrayhole.host[4].wlan[0].mac.queue packetPopped:vector(packetBytes) ETV
attr interpolationmode none
attr title "packet popped, vector(packetBytes)"
vector 228 AODVgrayhole.host[4].wlan[0].mac.queue queueingTime:vector ETV
attr interpolationmode none
attr source queueingTime(packetPopped)
attr title "queueing times, vector"
attr unit s
vector 229 AODVgrayhole.host[4].wlan[0].mac sentDownPk:vector(packetBytes) ETV
attr interpolationmode none
attr source packetSentToLower
attr title "packets sent to lower layer, vector(packetBytes)"
vector 230 AODVgrayhole.host[0].udp packetSent:vector(packetBytes) ETV
attr interpolationmode none
attr source packetSent
attr title "packets sent, vector(packetBytes)"
vector 231 AODVgrayhole.host[0].wlan[0].mac rcvdPkFromHl:vector(packetBytes) ETV
attr interpolationmode none
attr source packetReceivedFromUpper
attr title "packets received from higher layer, vector(packetBytes)"
vector 232 AODVgrayhole.host[0].wlan[0].mac.queue packetPushed:vector(packetBytes) ETV
attr interpolationmode none
attr title "packet pushed, vector(packetBytes)"
vector 233 AODVgrayhole.host[0].wlan[0].mac.queue queueLength:vector ETV
attr interpolationmode sample-hold
attr source "count(packetPushed) - count(packetPopped) - count(packetRemoved) - count(packetDropped)"
attr title "queue length, vector"
vector 234 AODVgrayhole.host[0].wlan[0].mac.queue packetPopped:vector(packetBytes) ETV
attr interpolationmode none
attr title "packet popped, vector(packetBytes)"
vector 235 AODVgrayhole.host[0].wlan[0].mac.queue queueingTime:vector ETV
attr interpolationmode none
attr source queueingTime(packetPopped)
attr title "queueing times, vector"
attr unit s
vector 236 AODVgrayhole.host[0].wlan[0].mac sentDownPk:vector(packetBytes) ETV
attr interpolationmode none
attr source packetSentToLower
attr title "packets sent to lower layer, vector(packetBytes)"
vector 237 AODVgrayhole.host[15].udp packetSent:vector(packetBytes) ETV
attr interpolationmode none
attr source packetSent
attr title "packets sent, vector(packetBytes)"
vector 238 AODVgrayhole.host[15].wlan[0].mac rcvdPkFromHl:vector(packetBytes) ETV
attr interpolationmode none
attr source packetReceivedFromUpper
attr title "packets received from higher layer, vector(packetBytes)"
vector 239 AODVgrayhole.host[15].wlan[0].mac.queue packetPushed:vector(packetBytes) ETV
attr interpolationmode none
attr title "packet pushed, vector(packetBytes)"
vector 240 AODVgrayhole.host[15].wlan[0].mac.queue queueLength:vector ETV
attr interpolationmode sample-hold
attr source "count(packetPushed) - count(packetPopped) - count(packetRemoved) - count(packetDropped)"
attr title "queue length, vector"
vector 241 AODVgrayhole.host[15].wlan[0].mac.queue packetPopped:vector(packetBytes) ETV
attr interpolationmode none
attr title "packet popped, vector(packetBytes)"
vector 242 AODVgrayhole.host[15].wlan[0].mac.queue queueingTime:vector ETV
attr interpolationmode none
attr source queueingTime(packetPopped)
attr title "queueing times, vector"
attr unit s
vector 243 AODVgrayhole.host[15].wlan[0].mac sentDownPk:vector(packetBytes) ETV
attr interpolationmode none
attr source packetSentToLower
attr title "packets sent to lower layer, vector(packetBytes)"
vector 244 AODVgrayhole.host[13].udp packetSent:vector(packetBytes) ETV
attr interpolationmode none
attr source packetSent
attr title "packets sent, vector(packetBytes)"
vector 245 AODVgrayhole.host[13].wlan[0].mac rcvdPkFromHl:vector(packetBytes) ETV
attr interpolationmode none
attr source packetReceivedFromUpper
attr title "packets received from higher layer, vector(packetBytes)"
vector 246 AODVgrayhole.host[13].wlan[0].mac.queue packetPushed:vector(packetBytes) ETV
attr interpolationmode none
attr title "packet pushed, vector(packetBytes)"
vector 247 AODVgrayhole.host[13].wlan[0].mac.queue queueLength:vector ETV
attr interpolationmode sample-hold
attr source "count(packetPushed) - count(packetPopped) - count(packetRemoved) - count(packetDropped)"
attr title "queue length, vector"
vector 248 AODVgrayhole.host[13].wlan[0].mac.queue packetPopped:vector(packetBytes) ETV
attr interpolationmode none
attr title "packet popped, vector(packetBytes)"
vector 249 AODVgrayhole.host[13].wlan[0].mac.queue queueingTime:vector ETV
attr interpolationmode none
attr source queueingTime(packetPopped)
attr title "queueing times, vector"
attr unit s
vector 250 AODVgrayhole.host[13].wlan[0].mac sentDownPk:vector(packetBytes) ETV
attr interpolationmode none
attr source packetSentToLower
attr title "packets sent to lower layer, vector(packetBytes)"
vector 251 AODVgrayhole.receiver.wlan[0].mac rcvdPkFromLl:vector(packetBytes) ETV
attr interpolationmode none
attr source packetReceivedFromLower
attr title "packets received from lower layer, vector(packetBytes)"
vector 252 AODVgrayhole.receiver.wlan[0].mac passedUpPk:vector(packetBytes) ETV
attr interpolationmode none
attr source packetSentToUpper
attr title "packets passed to higher layer, vector(packetBytes)"
vector 253 AODVgrayhole.receiver.udp packetReceived:vector(packetBytes) ETV
attr interpolationmode none
attr source packetReceived
attr title "packets received, vector(packetBytes)"
vector 254 AODVgrayhole.receiver.udp passedUpPk:vector(count) ETV
attr interpolationmode none
attr source packetSentToUpper
attr title "packets passed up, vector(count)"
vector 255 AODVgrayhole.receiver.udp packetSent:vector(packetBytes) ETV
attr interpolationmode none
attr source packetSent
attr title "packets sent, vector(packetBytes)"
vector 256 AODVgrayhole.receiver.ipv4.arp arpRequestSent:vector(packetBytes) ETV
attr source arpRequestSent
attr title "ARP request sent, vector(packetBytes)"
vector 257 AODVgrayhole.receiver.wlan[0].mac rcvdPkFromHl:vector(packetBytes) ETV
attr interpolationmode none
attr source packetReceivedFromUpper
attr title "packets received from higher layer, vector(packetBytes)"
vector 258 AODVgrayhole.receiver.wlan[0].mac.queue packetPushed:vector(packetBytes) ETV
attr interpolationmode none
attr title "packet pushed, vector(packetBytes)"
vector 259 AODVgrayhole.receiver.wlan[0].mac.queue queueLength:vector ETV
attr interpolationmode sample-hold
attr source "count(packetPushed) - count(packetPopped) - count(packetRemoved) - count(packetDropped)"
attr title "queue length, vector"
vector 260 AODVgrayhole.receiver.wlan[0].mac.queue packetPopped:vector(packetBytes) ETV
attr interpolationmode none
attr title "packet popped, vector(packetBytes)"
vector 261 AODVgrayhole.receiver.wlan[0].mac.queue queueingTime:vector ETV
attr interpolationmode none
attr source queueingTime(packetPopped)
attr title "queueing times, vector"
attr unit s
vector 262 AODVgrayhole.receiver.wlan[0].mac sentDownPk:vector(packetBytes) ETV
attr interpolationmode none
attr source packetSentToLower
attr title "packets sent to lower layer, vector(packetBytes)"
vector 263 AODVgrayhole.host[3].udp packetSent:vector(packetBytes) ETV
attr interpolationmode none
attr source packetSent
attr title "packets sent, vector(packetBytes)"
vector 264 AODVgrayhole.host[3].wlan[0].mac rcvdPkFromHl:vector(packetBytes) ETV
attr interpolationmode none
attr source packetReceivedFromUpper
attr title "packets received from higher layer, vector(packetBytes)"
vector 265 AODVgrayhole.host[3].wlan[0].mac.queue packetPushed:vector(packetBytes) ETV
attr interpolationmode none
attr title "packet pushed, vector(packetBytes)"
vector 266 AODVgrayhole.host[3].wlan[0].mac.queue queueLength:vector ETV
attr interpolationmode sample-hold
attr source "count(packetPushed) - count(packetPopped) - count(packetRemoved) - count(packetDropped)"
attr title "queue length, vector"
vector 267 AODVgrayhole.host[3].wlan[0].mac.queue packetPopped:vector(packetBytes) ETV
attr interpolationmode none
attr title "packet popped, vector(packetBytes)"
vector 268 AODVgrayhole.host[3].wlan[0].mac.queue queueingTime:vector ETV
attr interpolationmode none
attr source queueingTime(packetPopped)
attr title "queueing times, vector"
attr unit s
vector 269 AODVgrayhole.host[3].wlan[0].mac sentDownPk:vector(packetBytes) ETV
attr interpolationmode none
attr source packetSentToLower
attr title "packets sent to lower layer, vector(packetBytes)"
vector 270 AODVgrayhole.host[5].udp packetSent:vector(packetBytes) ETV
attr interpolationmode none
attr source packetSent
attr title "packets sent, vector(packetBytes)"
vector 271 AODVgrayhole.host[5].wlan[0].mac rcvdPkFromHl:vector(packetBytes) ETV
attr interpolationmode none
attr source packetReceivedFromUpper
attr title "packets received from higher layer, vector(packetBytes)"
vector 272 AODVgrayhole.host[5].wlan[0].mac.queue packetPushed:vector(packetBytes) ETV
attr interpolationmode none
attr title "packet pushed, vector(packetBytes)"
vector 273 AODVgrayhole.host[5].wlan[0].mac.queue queueLength:vector ETV
attr interpolationmode sample-hold
attr source "count(packetPushed) - count(packetPopped) - count(packetRemoved) - count(packetDropped)"
attr title "queue length, vector"
vector 274 AODVgrayhole.host[5].wlan[0].mac.queue packetPopped:vector(packetBytes) ETV
attr interpolationmode none
attr title "packet popped, vector(packetBytes)"
vector 275 AODVgrayhole.host[5].wlan[0].mac.queue queueingTime:vector ETV
attr interpolationmode none
attr source queueingTime(packetPopped)
attr title "queueing times, vector"
attr unit s
vector 276 AODVgrayhole.host[5].wlan[0].mac sentDownPk:vector(packetBytes) ETV
attr interpolationmode none
attr source packetSentToLower
attr title "packets sent to lower layer, vector(packetBytes)"
vector 277 AODVgrayhole.host[14].wlan[0].mac rcvdPkFromLl:vector(packetBytes) ETV
attr interpolationmode none
attr source packetReceivedFromLower
attr title "packets received from lower layer, vector(packetBytes)"
vector 278 AODVgrayhole.host[14].wlan[0].mac passedUpPk:vector(packetBytes) ETV
attr interpolationmode none
attr source packetSentToUpper
attr title "packets passed to higher layer, vector(packetBytes)"
vector 279 AODVgrayhole.host[14].udp packetReceived:vector(packetBytes) ETV
attr interpolationmode none
attr source packetReceived
attr title "packets received, vector(packetBytes)"
vector 280 AODVgrayhole.host[14].udp passedUpPk:vector(count) ETV
attr interpolationmode none
attr source packetSentToUpper
attr title "packets passed up, vector(count)"
vector 281 AODVgrayhole.host[3].ipv4.arp arpReplySent:vector(packetBytes) ETV
attr source arpReplySent
attr title "ARP replies sent, vector(packetBytes)"
vector 282 AODVgrayhole.host[13].wlan[0].mac packetDropNotAddressedToUs:vector(packetBytes) ETV
attr interpolationmode none
attr source packetDropReasonIsNotAddressedToUs(packetDropped)
attr title "packet drop: not addressed to us, vector(packetBytes)"
vector 283 AODVgrayhole.host[0].wlan[0].mac packetDropNotAddressedToUs:vector(packetBytes) ETV
attr interpolationmode none
attr source packetDropReasonIsNotAddressedToUs(packetDropped)
attr title "packet drop: not addressed to us, vector(packetBytes)"
vector 284 AODVgrayhole.host[5].wlan[0].mac packetDropNotAddressedToUs:vector(packetBytes) ETV
attr interpolationmode none
attr source packetDropReasonIsNotAddressedToUs(packetDropped)
attr title "packet drop: not addressed to us, vector(packetBytes)"
vector 285 AODVgrayhole.host[15].wlan[0].mac packetDropNotAddressedToUs:vector(packetBytes) ETV
attr interpolationmode none
attr source packetDropReasonIsNotAddressedToUs(packetDropped)
attr title "packet drop: not addressed to us, vector(packetBytes)"
vector 286 AODVgrayhole.host[3].ipv4.arp arpRequestSent:vector(packetBytes) ETV
attr source arpRequestSent
attr title "ARP request sent, vector(packetBytes)"
vector 287 AODVgrayhole.host[9].ipv4.arp arpReplySent:vector(packetBytes) ETV
attr source arpReplySent
attr title "ARP replies sent, vector(packetBytes)"
vector 288 AODVgrayhole.host[16].wlan[0].mac packetDropNotAddressedToUs:vector(packetBytes) ETV
attr interpolationmode none
attr source packetDropReasonIsNotAddressedToUs(packetDropped)
attr title "packet drop: not addressed to us, vector(packetBytes)"
vector 289 AODVgrayhole.host[7].wlan[0].mac packetDropNotAddressedToUs:vector(packetBytes) ETV
attr interpolationmode none
attr source packetDropReasonIsNotAddressedToUs(packetDropped)
attr title "packet drop: not addressed to us, vector(packetBytes)"
vector 290 AODVgrayhole.host[2].wlan[0].mac packetDropNotAddressedToUs:vector(packetBytes) ETV
attr interpolationmode none
attr source packetDropReasonIsNotAddressedToUs(packetDropped)
attr title "packet drop: not addressed to us, vector(packetBytes)"
vector 291 AODVgrayhole.host[1].wlan[0].mac packetDropNotAddressedToUs:vector(packetBytes) ETV
attr interpolationmode none
attr source packetDropReasonIsNotAddressedToUs(packetDropped)
attr title "packet drop: not addressed to us, vector(packetBytes)"
vector 292 AODVgrayhole.ntu_Grayholer.wlan[0].mac packetDropNotAddressedToUs:vector(packetBytes) ETV
attr interpolationmode none
attr source packetDropReasonIsNotAddressedToUs(packetDropped)
attr title "packet drop: not addressed to us, vector(packetBytes)"
vector 293 AODVgrayhole.host[11].wlan[0].mac packetDropNotAddressedToUs:vector(packetBytes) ETV
attr interpolationmode none
attr source packetDropReasonIsNotAddressedToUs(packetDropped)
attr title "packet drop: not addressed to us, vector(packetBytes)"
vector 294 AODVgrayhole.host[4].wlan[0].mac packetDropNotAddressedToUs:vector(packetBytes) ETV
attr interpolationmode none
attr source packetDropReasonIsNotAddressedToUs(packetDropped)
attr title "packet drop: not addressed to us, vector(packetBytes)"
vector 295 AODVgrayhole.host[12].wlan[0].mac packetDropNotAddressedToUs:vector(packetBytes) ETV
attr interpolationmode none
attr source packetDropReasonIsNotAddressedToUs(packetDropped)
attr title "packet drop: not addressed to us, vector(packetBytes)"
vector 296 AODVgrayhole.host[14].udp packetSent:vector(packetBytes) ETV
attr interpolationmode none
attr source packetSent
attr title "packets sent, vector(packetBytes)"
vector 297 AODVgrayhole.host[14].wlan[0].mac rcvdPkFromHl:vector(packetBytes) ETV
attr interpolationmode none
attr source packetReceivedFromUpper
attr title "packets received from higher layer, vector(packetBytes)"
vector 298 AODVgrayhole.host[14].wlan[0].mac.queue packetPushed:vector(packetBytes) ETV
attr interpolationmode none
attr title "packet pushed, vector(packetBytes)"
vector 299 AODVgrayhole.host[14].wlan[0].mac.queue queueLength:vector ETV
attr interpolationmode sample-hold
attr source "count(packetPushed) - count(packetPopped) - count(packetRemoved) - count(packetDropped)"
attr title "queue length, vector"
vector 300 AODVgrayhole.host[14].wlan[0].mac.queue packetPopped:vector(packetBytes) ETV
attr interpolationmode none
attr title "packet popped, vector(packetBytes)"
vector 301 AODVgrayhole.host[14].wlan[0].mac.queue queueingTime:vector ETV
attr interpolationmode none
attr source queueingTime(packetPopped)
attr title "queueing times, vector"
attr unit s
vector 302 AODVgrayhole.host[14].wlan[0].mac sentDownPk:vector(packetBytes) ETV
attr interpolationmode none
attr source packetSentToLower
attr title "packets sent to lower layer, vector(packetBytes)"
vector 303 AODVgrayhole.host[7].ipv4.arp arpReplySent:vector(packetBytes) ETV
attr source arpReplySent
attr title "ARP replies sent, vector(packetBytes)"
vector 304 AODVgrayhole.host[9].wlan[0].mac packetDropNotAddressedToUs:vector(packetBytes) ETV
attr interpolationmode none
attr source packetDropReasonIsNotAddressedToUs(packetDropped)
attr title "packet drop: not addressed to us, vector(packetBytes)"
vector 305 AODVgrayhole.host[10].wlan[0].mac packetDropNotAddressedToUs:vector(packetBytes) ETV
attr interpolationmode none
attr source packetDropReasonIsNotAddressedToUs(packetDropped)
attr title "packet drop: not addressed to us, vector(packetBytes)"
vector 306 AODVgrayhole.host[8].wlan[0].mac packetDropNotAddressedToUs:vector(packetBytes) ETV
attr interpolationmode none
attr source packetDropReasonIsNotAddressedToUs(packetDropped)
attr title "packet drop: not addressed to us, vector(packetBytes)"
vector 307 AODVgrayhole.sender.wlan[0].mac packetDropNotAddressedToUs:vector(packetBytes) ETV
attr interpolationmode none
attr source packetDropReasonIsNotAddressedToUs(packetDropped)
attr title "packet drop: not addressed to us, vector(packetBytes)"
vector 308 AODVgrayhole.host[17].wlan[0].mac packetDropNotAddressedToUs:vector(packetBytes) ETV
attr interpolationmode none
attr source packetDropReasonIsNotAddressedToUs(packetDropped)
attr title "packet drop: not addressed to us, vector(packetBytes)"
vector 309 AODVgrayhole.host[7].ipv4.arp arpRequestSent:vector(packetBytes) ETV
attr source arpRequestSent
attr title "ARP request sent, vector(packetBytes)"
vector 310 AODVgrayhole.sender.ipv4.arp arpReplySent:vector(packetBytes) ETV
attr source arpReplySent
attr title "ARP replies sent, vector(packetBytes)"
vector 311 AODVgrayhole.ntu_Grayholer.ipv4.ip rcvdPkt:vector ETV
attr interpolationmode none
attr title "Number of packet received, vector"
vector 312 AODVgrayhole.host[17].udp packetReceived:vector(packetBytes) ETV
attr interpolationmode none
attr source packetReceived
attr title "packets received, vector(packetBytes)"
vector 313 AODVgrayhole.host[17].udp passedUpPk:vector(count) ETV
attr interpolationmode none
attr source packetSentToUpper
attr title "packets passed up, vector(count)"
vector 314 AODVgrayhole.host[17].udp packetSent:vector(packetBytes) ETV
attr interpolationmode none
attr source packetSent
attr title "packets sent, vector(packetBytes)"
vector 315 AODVgrayhole.host[17].wlan[0].mac rcvdPkFromHl:vector(packetBytes) ETV
attr interpolationmode none
attr source packetReceivedFromUpper
attr title "packets received from higher layer, vector(packetBytes)"
vector 316 AODVgrayhole.host[17].wlan[0].mac.queue packetPushed:vector(packetBytes) ETV
attr interpolationmode none
attr title "packet pushed, vector(packetBytes)"
vector 317 AODVgrayhole.host[17].wlan[0].mac.queue queueLength:vector ETV
attr interpolationmode sample-hold
attr source "count(packetPushed) - count(packetPopped) - count(packetRemoved) - count(packetDropped)"
attr title "queue length, vector"
vector 318 AODVgrayhole.host[17].wlan[0].mac.queue packetPopped:vector(packetBytes) ETV
attr interpolationmode none
attr title "packet popped, vector(packetBytes)"
vector 319 AODVgrayhole.host[17].wlan[0].mac.queue queueingTime:vector ETV
attr interpolationmode none
attr source queueingTime(packetPopped)
attr title "queueing times, vector"
attr unit s
vector 320 AODVgrayhole.host[17].wlan[0].mac sentDownPk:vector(packetBytes) ETV
attr interpolationmode none
attr source packetSentToLower
attr title "packets sent to lower layer, vector(packetBytes)"
vector 321 AODVgrayhole.sender.ipv4.arp arpRequestSent:vector(packetBytes) ETV
attr source arpRequestSent
attr title "ARP request sent, vector(packetBytes)"
vector 322 AODVgrayhole.host[2].ipv4.arp arpReplySent:vector(packetBytes) ETV
attr source arpReplySent
attr title "ARP replies sent, vector(packetBytes)"
vector 323 AODVgrayhole.host[0].ipv4.arp arpReplySent:vector(packetBytes) ETV
attr source arpReplySent
attr title "ARP replies sent, vector(packetBytes)"
vector 324 AODVgrayhole.host[3].wlan[0].mac packetDropNotAddressedToUs:vector(packetBytes) ETV
attr interpolationmode none
attr source packetDropReasonIsNotAddressedToUs(packetDropped)
attr title "packet drop: not addressed to us, vector(packetBytes)"
vector 325 AODVgrayhole.host[6].wlan[0].mac packetDropNotAddressedToUs:vector(packetBytes) ETV
attr interpolationmode none
attr source packetDropReasonIsNotAddressedToUs(packetDropped)
attr title "packet drop: not addressed to us, vector(packetBytes)"
vector 326 AODVgrayhole.host[0].ipv4.arp arpRequestSent:vector(packetBytes) ETV
attr source arpRequestSent
attr title "ARP request sent, vector(packetBytes)"
vector 327 AODVgrayhole.receiver.wlan[0].mac packetDropNotAddressedToUs:vector(packetBytes) ETV
attr interpolationmode none
attr source packetDropReasonIsNotAddressedToUs(packetDropped)
attr title "packet drop: not addressed to us, vector(packetBytes)"
vector 328 AODVgrayhole.host[5].ipv4.arp arpReplySent:vector(packetBytes) ETV
attr source arpReplySent
attr title "ARP replies sent, vector(packetBytes)"
vector 329 AODVgrayhole.host[14].wlan[0].mac packetDropNotAddressedToUs:vector(packetBytes) ETV
attr interpolationmode none
attr source packetDropReasonIsNotAddressedToUs(packetDropped)
attr title "packet drop: not addressed to us, vector(packetBytes)"
vector 330 AODVgrayhole.ntu_Grayholer.ipv4.ip droppings:vector ETV
attr interpolationmode none
attr title "Number of drops, vector"
vector 331 AODVgrayhole.host[9].ipv4.arp arpRequestSent:vector(packetBytes) ETV
attr source arpRequestSent
attr title "ARP request sent, vector(packetBytes)"
vector 332 AODVgrayhole.ntu_Grayholer.ipv4.arp arpReplySent:vector(packetBytes) ETV
attr source arpReplySent
attr title "ARP replies sent, vector(packetBytes)"
vector 333 AODVgrayhole.host[15].ipv4.arp arpReplySent:vector(packetBytes) ETV
attr source arpReplySent
attr title "ARP replies sent, vector(packetBytes)"
vector 334 AODVgrayhole.host[15].ipv4.arp arpRequestSent:vector(packetBytes) ETV
attr source arpRequestSent
attr title "ARP request sent, vector(packetBytes)"
vector 335 AODVgrayhole.host[5].ipv4.arp arpRequestSent:vector(packetBytes) ETV
attr source arpRequestSent
attr title "ARP request sent, vector(packetBytes)"
vector 336 AODVgrayhole.host[11].ipv4.arp arpReplySent:vector(packetBytes) ETV
attr source arpReplySent
attr title "ARP replies sent, vector(packetBytes)"
vector 337 AODVgrayhole.host[11].ipv4.arp arpRequestSent:vector(packetBytes) ETV
attr source arpRequestSent
attr title "ARP request sent, vector(packetBytes)"
vector 338 AODVgrayhole.host[16].ipv4.arp arpReplySent:vector(packetBytes) ETV
attr source arpReplySent
attr title "ARP replies sent, vector(packetBytes)"
vector 339 AODVgrayhole.host[16].ipv4.arp arpRequestSent:vector(packetBytes) ETV
attr source arpRequestSent
attr title "ARP request sent, vector(packetBytes)"
vector 340 AODVgrayhole.receiver.app[0] packetReceived:vector(packetBytes) ETV
attr interpolationmode none
attr source packetReceived
attr title "packets received, vector(packetBytes)"
vector 341 AODVgrayhole.receiver.app[0] throughput:vector ETV
attr source throughput(packetReceived)
attr title "throughput, vector"
attr unit bps
vector 342 AODVgrayhole.receiver.app[0] endToEndDelay:vector ETV
attr interpolationmode none
attr source dataAge(packetReceived)
attr title "end-to-end delay, vector"
attr unit s
vector 343 AODVgrayhole.receiver.app[0] rcvdPkSeqNo:vector ETV
attr interpolationmode none
attr source appPkSeqNo(packetReceived)
attr title "received packet sequence number, vector"
vector 344 AODVgrayhole.host[1].ipv4.arp arpReplySent:vector(packetBytes) ETV
attr source arpReplySent
attr title "ARP replies sent, vector(packetBytes)"
vector 345 AODVgrayhole.host[1].ipv4.arp arpRequestSent:vector(packetBytes) ETV
attr source arpRequestSent
attr title "ARP request sent, vector(packetBytes)"
vector 346 AODVgrayhole.host[1].ipv4.ip packetDropAddressResolutionFailed:vector(packetBytes) ETV
attr interpolationmode none
attr source packetDropReasonIsAddressResolutionFailed(packetDropped)
attr title "packet drop: address resolution failed, vector(packetBytes)"
vector 347 AODVgrayhole.host[16].ipv4.ip packetDropAddressResolutionFailed:vector(packetBytes) ETV
attr interpolationmode none
attr source packetDropReasonIsAddressResolutionFailed(packetDropped)
attr title "packet drop: address resolution failed, vector(packetBytes)"
0	68463 24 0 0 0 0 3 0 4 4 16
1	68487 24 0 0 0 0 3 0 4 4 16
2	68511 24 0 0 0 0 3 0 4 4 16
3	68535 24 0 0 0 0 3 0 4 4 16
4	68559 24 0 0 0 0 3 0 4 4 16
5	68583 24 0 0 0 0 3 0 4 4 16
6	68607 24 0 0 0 0 3 0 4 4 16
7	68631 24 0 0 0 0 3 0 4 4 16
8	68655 24 0 0 0 0 3 0 4 4 16
9	68679 24 0 0 0 0 3 0 4 4 16
10	68703 27 0 0 0 0 3 0 4 4 16
11	68730 27 0 0 0 0 3 0 4 4 16
12	68757 27 0 0 0 0 3 0 4 4 16
13	68784 27 0 0 0 0 3 0 4 4 16
14	68811 27 0 0 0 0 3 0 4 4 16
15	68838 27 0 0 0 0 3 0 4 4 16
16	68865 27 0 0 0 0 3 0 4 4 16
17	68892 27 0 0 0 0 3 0 4 4 16
18	68919 27 0 0 0 0 3 0 4 4 16
19	68946 27 0 0 0 0 3 0 4 4 16
20	68973 27 0 0 0 0 3 0 4 4 16
21	69000 10756 0 77713 0 115.013011998004 404 1 3 817 2025
22	79756 1723 0 75014 0 112.011142445483 65 1 2 97 161
23	81479 31335 0 78884 0 118.011459374126 1172 1 3 2349 5829
24	112814 1355 0 77683 0 115.013011318629 51 1 2 76 126
25	114169 45069 0 78851 0 118.011458712379 1681 1 3 3372 8376
26	159238 6940 0 78855 0 118.011458712379 264 1 2 396 660
27	166178 14458 0 78484 0 118.00690211949 543 1 3 1097 2717
28	180636 1633 0 73565 0 111.017865862951 63 1 2 94 156
29	182269 26913 0 78882 0 118.011459289856 1005 1 3 2013 5003
30	209182 859 0 68172 0 99.815680532581 33 1 2 49 81
31	210041 15032 0 78486 0 118.006902142563 563 1 3 1139 2823
32	225073 1445 0 74492 0 111.120166504866 55 1 2 82 136
33	226518 14113 0 78478 0 118.006902031399 528 1 3 1062 2630
34	240631 807 0 73809 0 111.019365332372 31 1 2 46 76
35	241438 40744 0 78862 0 118.01145892504 1518 1 3 3048 7574
36	282182 11295 0 78590 0 118.008508498758 421 1 2 631 1051
37	293477 35762 0 78879 0 118.011459098122 1332 1 3 2670 6650
38	329239 1123 0 67487 0 99.812628775237 43 1 2 64 106
39	330362 37935 0 78880 0 118.011459193422 1415 1 3 2852 7094
40	368297 3933 0 78461 0 118.006901317258 147 1 2 220 366
41	372230 33592 0 78881 0 118.011459216962 1251 1 3 2508 6258
42	405822 1067 0 68246 0 99.816502033079 41 1 2 61 101
43	406889 37174 0 78869 0 118.011459029542 1394 1 3 2798 6970
44	444063 2948 0 78847 0 118.011458395216 109 1 2 163 271
45	447011 16302 0 78890 0 118.011459489502 608 1 3 1216 3016
46	463313 749 0 67081 0 99.811697873763 29 1 2 43 71
47	464062 11498 0 77705 0 115.013011946432 433 1 3 882 2196
48	475560 857 0 73965 0 111.019836344848 33 1 2 49 81
49	476417 1445 0 74505 0 111.120167219216 55 1 3 109 271
50	477862 537 0 68077 0 99.815273946921 21 1 2 31 51
51	478399 37585 0 78887 0 118.011459394486 1406 1 3 2833 7049
52	515984 3269 0 76137 0 113.015512920288 123 1 2 184 306
53	519253 37923 0 78891 0 118.011459544092 1419 1 3 2858 7112
54	557176 2719 0 77684 0 115.013011318917 101 1 2 151 251
55	559895 8417 0 78707 0 118.010809530416 317 1 3 633 1581
56	568312 1141 0 78674 0 118.010530891925 43 1 2 64 106
57	569453 22393 0 78888 0 118.011459419605 836 1 3 1676 4174
58	591846 9715 0 78359 0 118.0023 451 1 2 676 1126
59	601561 5180 0 75030 0 112.011143224069 197 1 3 394 972
60	606741 1587 0 73512 0 111.017695711578 61 1 2 91 151
61	608328 27909 0 78886 0 118.011459386975 1043 1 3 2092 5204
62	636237 8447 0 78699 0 118.010808966746 317 1 2 475 791
63	644684 1903 45 78334 0 118 119 512 512 60928 31195136
64	646587 2947 48 78810 0 118.011206785279 157 20 520 63024 32212736
65	649534 4978 55 78337 0.002964223082 118 225 28 540 101840 54042144
66	654512 4978 55 78337 0.002964223082 118 225 28 540 101840 54042144
67	659490 9136 55 78337 0.002964223082 118 450 0 1 225 225
68	668626 4978 55 78337 0.002964223082 118 225 28 540 101840 54042144
69	673604 4581 55 78337 0.002964223082 118 225 0 0.002300812666 0.002300812666 5.293738924026e-06
70	678185 4978 55 78337 0.002964223082 118 225 51 563 107015 58845809
71	683163 17656 79 78864 0.003312550894 118.011458967813 617 51 563 267595 145038449
72	700819 3240 79 78864 0.003312550894 118.011458967813 117 28 64 5764 290512
73	704059 2933 81 78781 0.003312550894 118.011206582636 106 20 44 3336 106048
74	706992 2931 81 78781 0.003312550894 118.011206582636 106 1 106 5671 402641
75	709923 18600 84 78849 0.003312666381 118.011458568041 651 51 563 270089 145222483
76	728523 4122 84 78849 0.003312666381 118.011458568041 149 28 64 7400 374720
77	732645 3786 86 78770 0.003312666381 118.011206463796 137 20 44 4324 137552
78	736431 3815 86 78770 0.003312666381 118.011206463796 137 1 137 9453 866525
79	740246 19309 89 78759 0.003312837701 118.011206395216 681 51 563 272163 145368929
80	759555 5608 89 78759 0.003312837701 118.011206395216 201 28 540 22140 7724720
81	765163 4332 91 78761 0.003312837701 118.011206395216 157 20 44 4968 158304
82	769495 4381 91 78761 0.003312837701 118.011206395216 157 1 157 12403 1302315
83	773876 23110 94 78852 0.003312930308 118.011458712379 811 51 563 320601 170963571
84	796986 8413 94 78852 0.003312930308 118.011458712379 303 28 540 53652 23588976
85	805399 5520 96 78549 0.003312930308 118.008176705366 200 20 44 6320 200960
86	810919 5612 96 78549 0.003312930308 118.008176705366 200 1 200 20100 2686700
87	816531 20840 99 78860 0.003313035748 118.011458924 732 51 563 271272 142812580
88	837371 10931 99 78860 0.003313035748 118.011458924 388 28 540 102080 49827168
89	848302 5447 101 78756 0.003313035748 118.011206290714 197 20 44 6264 200160
90	853749 5536 101 78756 0.003313035748 118.011206290714 197 1 197 19503 2567895
91	859285 945 119 78527 0.006037451635 118.008176498758 34 20 36 1036 31920
92	860230 6021 121 78529 0.006037451635 118.008176498758 210 28 540 92660 49082032
93	866251 6021 121 78529 0.006037451635 118.008176498758 210 28 540 92660 49082032
94	872272 11286 121 78529 0.006037451635 118.008176498758 420 0 1 210 210
95	883558 6021 121 78529 0.006037451635 118.008176498758 210 28 540 92660 49082032
96	889579 5643 121 78529 0.006037451635 118.008176498758 210 0 0 0 0
97	895222 6021 121 78529 0.006037451635 118.008176498758 210 51 563 97490 53455482
98	901243 690 144 78763 0.006326654553 118.011206395216 25 28 32 780 24400
99	901933 1548 146 78765 0.006326654553 118.011206395216 54 28 540 14872 7357216
100	903481 1602 146 78765 0.006326654553 118.011206395216 54 28 540 14872 7357216
101	905083 3046 146 78765 0.006326654553 118.011206395216 108 0 1 54 54
102	908129 1602 146 78765 0.006326654553 118.011206395216 54 28 540 14872 7357216
103	909731 1523 146 78765 0.006326654553 118.011206395216 54 0 0 0 0
104	911254 1602 146 78765 0.006326654553 118.011206395216 54 51 563 16114 8069894
105	912856 20095 175 78877 0.006385888906 118.011459097855 683 51 563 247001 129447635
106	932951 6918 175 78877 0.006385888906 118.011459097855 240 28 540 23920 7810400
107	939869 5297 177 78775 0.006385888906 118.011206559096 185 20 44 5880 187680
108	945166 5374 177 78775 0.006385888906 118.011206559096 185 1 185 17205 2127685
109	950540 14857 180 78795 0.006385919623 118.011206752649 506 51 563 181270 94858938
110	965397 11546 180 78795 0.006385919623 118.011206752649 394 28 540 126752 64283232
111	976943 4422 182 78797 0.006385919623 118.011206752649 154 20 36 4824 151808
112	981365 4468 182 78797 0.006385919623 118.011206752649 154 1 154 11935 1229305
113	985833 1177 184 78497 0.006385919623 118.00782803077 41 28 36 1272 39744
114	987010 135 185 20560 0.006385919623 30.333031357885 5 28 28 140 3920
115	987145 4645 186 78600 0.006385919623 118.008508966746 158 28 540 61688 32188512
116	991790 4645 186 78600 0.006385919623 118.008508966746 158 28 540 61688 32188512
117	996435 8754 186 78600 0.006385919623 118.008508966746 316 0 1 158 158
118	1005189 4645 186 78600 0.006385919623 118.008508966746 158 28 540 61688 32188512
119	1009834 4416 186 78600 0.006385919623 118.008508966746 158 0 0.002300674596 0.004933873497 1.0696188061399e-05
120	1014250 4645 186 78600 0.006385919623 118.008508966746 158 51 563 65322 35109742
121	1018895 19944 204 78801 0.006386044741 118.01120676016 680 51 563 242240 126610584
122	1038839 6618 204 78801 0.006386044741 118.01120676016 231 28 540 20516 6052432
123	1045457 5175 206 78803 0.006386044741 118.01120676016 181 20 44 5768 184608
124	1050632 5248 206 78803 0.006386044741 118.01120676016 181 1 181 16471 1992991
125	1055880 16486 209 78874 0.006386222397 118.011459046041 562 51 563 197118 102637810
126	1072366 5245 209 78874 0.006386222397 118.011459046041 183 28 56 9000 453184
127	1077611 4667 211 78792 0.006386222397 118.0112067398 163 20 36 5180 165104
128	1082278 4722 211 78792 0.006386222397 118.0112067398 163 1 163 13366 1456894
129	1087000 20150 214 78818 0.006386222685 118.011206909766 687 51 563 247637 129762231
130	1107150 6111 214 78818 0.006386222685 118.011206909766 213 28 540 14200 2825184
131	1113261 4966 216 78820 0.006386222685 118.011206909766 173 20 44 5524 177136
132	1118227 5031 216 78820 0.006386222685 118.011206909766 173 1 173 15051 1740899
133	1123258 14296 219 78857 0.006386224428 118.011458758777 486 51 563 179522 94465334
134	1137554 4130 219 78857 0.006386224428 118.011458758777 144 28 56 7068 355408
135	1141684 3667 221 78786 0.006386224428 118.01120665553 128 20 36 4060 129264
136	1145351 3687 221 78786 0.006386224428 118.01120665553 128 1 128 8256 707264
137	1149038 12029 224 78867 0.006386264301 118.011459009835 408 51 563 162260 86592816
138	1161067 5203 224 78867 0.006386264301 118.011459009835 179 28 540 41184 19523552
139	1166270 2910 226 78808 0.006386264301 118.011206785279 102 20 36 3196 100688
140	1169180 2904 226 78808 0.006386264301 118.011206785279 102 1 102 5253 358955
141	1172084 4630 266 78708 0.006638483293 118.010809530416 158 51 563 65322 35109742
142	1176714 887 266 78542 0.006638483293 118.00817659444 31 28 56 1512 76384
143	1177601 8526 300 78871 0.00667529216 118.011459032823 291 51 563 84157 41719939
144	1186127 3614 300 78871 0.00667529216 118.011459032823 126 28 56 6296 320032
145	1189741 3324 302 78815 0.00667529216 118.011206855176 116 20 36 3696 117952
146	1193065 3332 302 78815 0.00667529216 118.011206855176 116 1 116 6786 527046
147	1196397 569 318 68222 0.006888497719 99.816154033079 20 32 32 640 20480
148	1196966 569 320 68224 0.006888497719 99.816154033079 20 52 52 1040 54080
149	1197535 569 320 68224 0.006888497719 99.816154033079 20 52 52 1040 54080
150	1198104 1098 320 68224 0.006888497719 99.816154033079 40 0 1 20 20
151	1199202 569 320 68224 0.006888497719 99.816154033079 20 52 52 1040 54080
152	1199771 549 320 68224 0.006888497719 99.816154033079 20 0 0 0 0
153	1200320 569 320 68224 0.006888497719 99.816154033079 20 75 75 1500 112500
154	1200889 599 384 67289 0.007533995101 99.812280775237 21 32 32 672 21504
155	1201488 599 386 67291 0.007533995101 99.812280775237 21 52 52 1092 56784
156	1202087 599 386 67291 0.007533995101 99.812280775237 21 52 52 1092 56784
157	1202686 1156 386 67291 0.007533995101 99.812280775237 42 0 1 21 21
158	1203842 599 386 67291 0.007533995101 99.812280775237 21 52 52 1092 56784
159	1204441 578 386 67291 0.007533995101 99.812280775237 21 0 0 0 0
160	1205019 599 386 67291 0.007533995101 99.812280775237 21 75 75 1575 118125
161	1205618 1312 409 78728 0.007602658407 118.010858078053 46 20 32 1408 43360
162	1206930 3822 411 78854 0.007602658407 118.011458712379 132 28 540 45184 23159968
163	1210752 3822 411 78854 0.007602658407 118.011458712379 132 28 540 45184 23159968
164	1214574 7222 411 78854 0.007602658407 118.011458712379 264 0 1 132 132
165	1221796 3822 411 78854 0.007602658407 118.011458712379 132 28 540 45184 23159968
166	1225618 3611 411 78854 0.007602658407 118.011458712379 132 0 0 0 0
167	1229229 3822 411 78854 0.007602658407 118.011458712379 132 51 563 48220 25308260
168	1233051 603 846 75672 0.327139101079 113.012759318629 21 28 32 660 20784
169	1233654 723 848 77638 0.327139101079 115.012759318629 25 28 52 1172 57200
170	1234377 723 848 77638 0.327139101079 115.012759318629 25 28 52 1172 57200
171	1235100 1396 848 77638 0.327139101079 115.012759318629 50 0 1 25 25
172	1236496 723 848 77638 0.327139101079 115.012759318629 25 28 52 1172 57200
173	1237219 698 848 77638 0.327139101079 115.012759318629 25 0 0 0 0
174	1237917 723 848 77638 0.327139101079 115.012759318629 25 51 75 1747 124337
175	1238640 398 1060 66949 0.328218933049 99.811349873763 14 32 32 448 14336
176	1239038 398 1062 66951 0.328218933049 99.811349873763 14 52 52 728 37856
177	1239436 398 1062 66951 0.328218933049 99.811349873763 14 52 52 728 37856
178	1239834 768 1062 66951 0.328218933049 99.811349873763 28 0 1 14 14
179	1240602 398 1062 66951 0.328218933049 99.811349873763 14 52 52 728 37856
180	1241000 384 1062 66951 0.328218933049 99.811349873763 14 0 0 0 0
181	1241384 398 1062 66951 0.328218933049 99.811349873763 14 75 75 1050 78750
182	1241782 1110 1085 72891 0.328343028522 111.014728695779 39 28 36 1220 38288
183	1242892 2134 1087 78428 0.328343028522 118.004601317258 73 28 540 15752 7399744
184	1245026 2134 1087 78428 0.328343028522 118.004601317258 73 28 540 15752 7399744
185	1247160 4071 1087 78428 0.328343028522 118.004601317258 146 0 1 73 73
186	1251231 2133 1087 78428 0.328343028522 118.004601317258 73 28 540 15752 7399744
187	1253364 2085 1087 78428 0.328343028522 118.004601317258 73 0 0.096166420711 0.097663703041 0.0092499710741918
188	1255449 2133 1087 78428 0.328343028522 118.004601317258 73 51 563 17431 8162953
189	1257582 7251 1179 78479 0.328691742663 118.006902031399 250 51 563 46466 19638386
190	1264833 4178 1179 77691 0.328691742663 115.013011693112 146 28 64 7036 350960
191	1269011 3494 1181 76143 0.328691742663 113.01551343379 122 32 44 3924 126384
192	1272505 3508 1181 76143 0.328691742663 113.01551343379 122 1 122 7503 612745
193	1276013 7396 1190 78485 0.328691830754 118.00690211949 256 51 563 46960 19677632
194	1283409 4432 1190 77695 0.328691830754 115.013011780411 155 28 56 7456 371488
195	1287841 3696 1192 76150 0.328691830754 113.015513520939 129 28 36 4148 133584
196	1291537 3717 1192 76150 0.328691830754 113.015513520939 129 1 129 8385 723905
197	1295254 7701 1195 78487 0.328691853827 118.006902142563 266 51 563 47154 19414242
198	1302955 4662 1195 77698 0.328691853827 115.013011805006 163 28 540 8348 681488
199	1307617 3870 1197 76156 0.328691853827 113.015513596088 135 28 44 4352 140640
200	1311487 3897 1197 76156 0.328691853827 113.015513596088 135 1 135 9180 829260
201	1315384 949 1208 75681 0.328772913773 113.012759318917 33 28 32 1044 33072
202	1316333 1463 1210 77641 0.328772913773 115.012759318917 50 28 540 6256 2426368
203	1317796 1463 1210 77641 0.328772913773 115.012759318917 50 28 540 6256 2426368
204	1319259 2810 1210 77641 0.328772913773 115.012759318917 100 0 2 52 54
205	1322069 1463 1210 77641 0.328772913773 115.012759318917 50 28 540 6256 2426368
206	1323532 1431 1210 77641 0.328772913773 115.012759318917 50 0 0.096243924317 0.190718099448 0.018188262734619
207	1324963 1463 1210 77641 0.328772913773 115.012759318917 50 51 563 7406 2740594
208	1326426 5984 1264 77706 0.329121541288 115.013011946432 208 51 563 31156 11623608
209	1332410 3515 1264 77706 0.329121541288 115.013011946432 123 28 64 5864 291360
210	1335925 2841 1266 76166 0.329121541288 113.015513646019 99 32 44 3212 104464
211	1338766 2832 1266 76166 0.329121541288 113.015513646019 99 1 99 4950 328350
212	1341598 5504 1269 77714 0.32912159286 115.013011998004 191 51 563 27109 9679783
213	1347102 3703 1269 77714 0.32912159286 115.013011998004 129 28 540 9608 2330944
214	1350805 2841 1271 76171 0.32912159286 113.015513684902 99 28 44 3204 103952
215	1353646 2832 1271 76171 0.32912159286 113.015513684902 99 1 99 4950 328350
216	1356478 429 1298 73759 0.331080068221 111.019017332372 15 32 32 480 15360
217	1356907 429 1300 73761 0.331080068221 111.019017332372 15 52 52 780 40560
218	1357336 429 1300 73761 0.331080068221 111.019017332372 15 52 52 780 40560
219	1357765 828 1300 73761 0.331080068221 111.019017332372 30 0 1 15 15
220	1358593 429 1300 73761 0.331080068221 111.019017332372 15 52 52 780 40560
221	1359022 414 1300 73761 0.331080068221 111.019017332372 15 0 0 0 0
222	1359436 429 1300 73761 0.331080068221 111.019017332372 15 75 75 1125 84375
223	1359865 457 1323 68103 0.331314316939 99.815332532581 16 32 32 512 16384
224	1360322 457 1325 68105 0.331314316939 99.815332532581 16 52 52 832 43264
225	1360779 457 1325 68105 0.331314316939 99.815332532581 16 52 52 832 43264
226	1361236 882 1325 68105 0.331314316939 99.815332532581 32 0 1 16 16
227	1362118 457 1325 68105 0.331314316939 99.815332532581 16 52 52 832 43264
228	1362575 441 1325 68105 0.331314316939 99.815332532581 16 0 0 0 0
229	1363016 457 1325 68105 0.331314316939 99.815332532581 16 75 75 1200 90000
230	1363473 542 1397 73541 0.331521478717 111.017837416499 19 28 36 600 19008
231	1364015 928 1399 74983 0.331521478717 112.010810445483 32 28 540 4928 2096512
232	1364943 928 1399 74983 0.331521478717 112.010810445483 32 28 540 4928 2096512
233	1365871 1778 1399 74983 0.331521478717 112.010810445483 64 0 1 32 32
234	1367649 928 1399 74983 0.331521478717 112.010810445483 32 28 540 4928 2096512
235	1368577 889 1399 74983 0.331521478717 112.010810445483 32 0 0 0 0
236	1369466 928 1399 74983 0.331521478717 112.010810445483 32 51 563 5664 2340128
237	1370394 1004 1467 76044 0.33167387038 113.015164920288 35 28 32 1104 34880
238	1371398 1771 1469 76046 0.33167387038 113.015164920288 61 28 540 12260 5638928
239	1373169 1771 1469 76046 0.33167387038 113.015164920288 61 28 540 12260 5638928
240	1374940 3382 1469 76046 0.33167387038 113.015164920288 122 0 1 61 61
241	1378322 1771 1469 76046 0.33167387038 113.015164920288 61 28 540 12260 5638928
242	1380093 1691 1469 76046 0.33167387038 113.015164920288 61 0 0 0 0
243	1381784 1771 1469 76046 0.33167387038 113.015164920288 61 51 563 13663 6235157
244	1383555 456 1492 73916 0.331766015896 111.019488344848 16 32 32 512 16384
245	1384011 456 1494 73918 0.331766015896 111.019488344848 16 52 52 832 43264
246	1384467 456 1494 73918 0.331766015896 111.019488344848 16 52 52 832 43264
247	1384923 880 1494 73918 0.331766015896 111.019488344848 32 0 1 16 16
248	1385803 456 1494 73918 0.331766015896 111.019488344848 16 52 52 832 43264
249	1386259 440 1494 73918 0.331766015896 111.019488344848 16 0 0 0 0
250	1386699 456 1494 73918 0.331766015896 111.019488344848 16 75 75 1200 90000
251	1387155 2618 1548 75031 0.331870257303 112.011143224069 92 51 563 10304 2944596
252	1389773 2199 1548 74924 0.331870257303 112.010557694841 77 28 540 7528 2489280
253	1391972 1752 1550 74510 0.331870257303 111.120167268126 61 28 520 5860 2217936
254	1393724 1735 1550 74510 0.331870257303 111.120167268126 61 1 61 1891 77531
255	1395459 716 1552 73422 0.331870257303 111.017363711578 25 28 36 768 23904
256	1396175 135 1553 8630 0.331870257303 2.338713376235 5 28 28 140 3920
257	1396310 849 1554 73424 0.331870257303 111.017363711578 30 28 56 1408 68544
258	1397159 849 1554 73424 0.331870257303 111.017363711578 30 28 56 1408 68544
259	1398008 1638 1554 73424 0.331870257303 111.017363711578 60 0 1 30 30
260	1399646 849 1554 73424 0.331870257303 111.017363711578 30 28 56 1408 68544
261	1400495 819 1554 73424 0.331870257303 111.017363711578 30 0 0 0 0
262	1401314 849 1554 73424 0.331870257303 111.017363711578 30 51 79 2098 149182
263	1402163 684 1683 73463 0.332650455921 111.017517862951 24 28 44 748 23568
264	1402847 875 1685 73465 0.332650455921 111.017517862951 31 28 64 1424 68576
265	1403722 875 1685 73465 0.332650455921 111.017517862951 31 28 64 1424 68576
266	1404597 1687 1685 73465 0.332650455921 111.017517862951 62 0 2 33 35
267	1406284 874 1685 73465 0.332650455921 111.017517862951 31 28 64 1424 68576
268	1407158 869 1685 73465 0.332650455921 111.017517862951 31 0 0.000665604464 0.000998406696 5.5378662812091e-07
269	1408027 874 1685 73465 0.332650455921 111.017517862951 31 51 87 2137 150479
270	1408901 573 1708 73693 0.332752697459 111.018484636193 20 28 32 620 19280
271	1409474 773 1710 74392 0.332752697459 111.117866504866 27 28 540 1728 348384
272	1410247 773 1710 74392 0.332752697459 111.117866504866 27 28 540 1728 348384
273	1411020 1490 1710 74392 0.332752697459 111.117866504866 54 0 1 27 27
274	1412510 773 1710 74392 0.332752697459 111.117866504866 27 28 540 1728 348384
275	1413283 745 1710 74392 0.332752697459 111.117866504866 27 0 0 0 0
276	1414028 773 1710 74392 0.332752697459 111.117866504866 27 51 563 2349 442155
277	1414801 773 1797 74506 0.333101411809 111.120167219216 27 51 563 2349 442155
278	1415574 545 1797 73738 0.333101411809 111.018737350543 19 28 52 892 43696
279	1416119 430 1799 73415 0.333101411809 111.017363662668 15 32 32 480 15360
280	1416549 421 1799 73415 0.333101411809 111.017363662668 15 1 15 120 1240
281	1416970 54 2422 5210 0.805980351884 1.335570119757 2 28 28 56 1568
282	1417024 2469 2513 75216 0.806232568853 112.015233674114 85 51 563 22463 10997437
283	1419493 1801 2515 75218 0.806232636939 112.015233725686 62 51 563 14534 6838630
284	1421294 3039 2517 78487 0.806232658188 118.006902142563 103 51 563 35057 18262519
285	1424333 13326 2520 78704 0.806232952535 118.010809491051 449 51 563 216411 119492217
286	1437659 137 2952 68289 0.808933949982 99.817966141135 5 28 28 140 3920
287	1437796 108 3063 8837 0.809186752214 2.343138324876 4 28 28 112 3136
288	1437904 14039 3135 78712 0.809439103034 118.010809674806 474 51 563 228538 126171170
289	1451943 10253 3137 78467 0.809439189485 118.006901754529 344 51 563 160268 88084480
290	1462196 15205 3139 78710 0.809439233257 118.010809641342 508 51 563 259980 144746316
291	1477401 11241 3141 78611 0.809439244566 118.00850926952 379 51 563 183909 101673819
292	1488642 3311 3143 77586 0.809439304103 115.011502805123 112 51 563 45456 24536688
293	1491953 14181 3145 78603 0.809439454853 118.008509027542 480 51 563 245400 136519440
294	1506134 10166 3148 78615 0.809439487531 118.008509271551 342 51 563 169142 93708622
295	1516300 4912 3150 78483 0.809439507015 118.006902072059 165 51 563 74963 41043637
296	1521212 284 3312 68028 0.813371631067 99.814925946921 10 32 32 320 10240
297	1521496 284 3314 68030 0.813371631067 99.814925946921 10 52 52 520 27040
298	1521780 284 3314 68030 0.813371631067 99.814925946921 10 52 52 520 27040
299	1522064 548 3314 68030 0.813371631067 99.814925946921 20 0 1 10 10
300	1522612 284 3314 68030 0.813371631067 99.814925946921 10 52 52 520 27040
301	1522896 274 3314 68030 0.813371631067 99.814925946921 10 0 0 0 0
302	1523170 284 3314 68030 0.813371631067 99.814925946921 10 75 75 750 56250
303	1523454 57 3434 75804 1.006638387611 113.013011605435 2 28 28 56 1568
304	1523511 13177 3490 78706 1.006890824882 118.010809518635 443 51 563 217561 120409955
305	1536688 14916 3499 78605 1.006890926818 118.008509037965 500 51 563 259140 144420900
306	1551604 14980 3501 78607 1.006890962741 118.008509073888 502 51 563 259262 144428542
307	1566584 6826 3511 78617 1.006891200277 118.008509311424 229 51 563 116959 65080109
308	1573410 3743 3552 78708 1.007223419269 118.010809530416 127 51 563 63097 34947407
309	1577153 172 3573 36899 1.009530720401 41.010098265724 6 28 28 168 4704
310	1577325 56 3629 63951 1.009783533067 98.816436878853 2 28 28 56 1568
311	1577381 6414 3850 78475 1.014970439053 118.006901869147 219 1 219 24090 3525170
312	1583795 752 3996 78544 1.019221648601 118.00817659444 26 32 36 852 27984
313	1584547 743 3996 78544 1.019221648601 118.00817659444 26 1 26 351 6201
314	1585290 608 4250 78650 1.022421253686 118.010182891925 21 32 32 672 21504
315	1585898 608 4252 78652 1.022421253686 118.010182891925 21 52 52 1092 56784
316	1586506 608 4252 78652 1.022421253686 118.010182891925 21 52 52 1092 56784
317	1587114 1174 4252 78652 1.022421253686 118.010182891925 42 0 1 21 21
318	1588288 608 4252 78652 1.022421253686 118.010182891925 21 52 52 1092 56784
319	1588896 587 4252 78652 1.022421253686 118.010182891925 21 0 0 0 0
320	1589483 608 4252 78652 1.022421253686 118.010182891925 21 75 75 1575 118125
321	1590091 27 4326 4326 1.022480565709 1.022480565709 1 28 28 28 784
322	1590118 196 4380 78853 1.022733272935 118.011458712379 7 28 28 196 5488
323	1590314 56 4937 68754 1.332123035889 99.826605244019 2 28 28 56 1568
324	1590370 2964 5019 78485 1.332375320944 118.00690211949 101 51 563 35939 18881173
325	1593334 3073 5021 78479 1.332375376386 118.006902031399 104 51 563 36072 18886536
326	1596407 114 5156 74879 1.335317834702 112.010304916255 4 28 28 112 3136
327	1596521 419 5281 75031 1.335822898706 112.011143224069 15 51 71 1005 68295
328	1596940 54 5697 8659 1.338965767837 2.338966139495 2 28 28 56 1568
329	1596994 228 5807 74506 1.339218482187 111.120167219216 8 51 563 1020 347376
330	1597222 3137 6739 78228 1.348719510691 117.006901869147 109 1 109 5995 437635
331	1600359 142 7309 75108 1.81268771109 112.014728695779 5 28 28 140 3920
332	1600501 56 7350 68526 1.812940262979 99.823466440752 2 28 28 56 1568
333	1600557 142 8251 74920 2.020414182657 112.010557680869 5 28 28 140 3920
334	1600699 56 8381 21757 2.021300511291 30.338632675846 2 28 28 56 1568
335	1600755 115 8787 73694 2.342885499571 111.018484636193 4 28 28 112 3136
336	1600870 29 63360 63360 98.811711821166 98.811711821166 1 28 28 28 784
337	1600899 118 63836 78764 98.816184264234 118.011206395216 4 28 28 112 3136
338	1601017 149 68327 75137 99.818218602629 112.014981046599 5 28 28 140 3920
339	1601166 148 68475 77640 99.823213732692 115.012759318917 5 28 28 140 3920
340	1601314 241 68921 74511 99.831459380779 111.120167268126 8 512 512 4096 2097152
341	1601555 18706 68921 74511 0.1 111.1 1111 0 40960 286720 11744051200
342	1620261 323 68921 74511 99.831459380779 111.120167268126 8 0.01380403488 0.831459380779 1.034450858185 0.70690818248807
343	1620584 240 68921 74511 99.831459380779 111.120167268126 8 99 111 838 87886
344	1620824 30 73232 73232 111.015817605175 111.015817605175 1 28 28 28 784
345	1620854 120 74061 77637 111.020506742424 115.012759318629 4 28 28 112 3136
346	1620974 30 78032 78032 116.012759318629 116.012759318629 1 48 48 48 2304
347	1621004 30 78033 78033 116.012759318917 116.012759318917 1 48 48 48 2304
vector 348 AODVgrayhole.sender.app[0] throughput:vector ETV
attr source throughput(packetReceived)
attr title "throughput, vector"
attr unit bps
341	1621179 1261 78906 78906 111.2 118.011460608366 70 0 40960 40960 1677721600
348	1622440 19935 78906 78906 0.1 118.011460608366 1181 0 0 0 0

