version 2
run Static-blackhole-0-20210403-11:32:02-9989
attr configname Static-blackhole
attr datetime 20210403-11:32:02
attr experiment Static-blackhole
attr inifile AODVgrayhole.ini
attr iterationvars ""
attr iterationvarsf ""
attr measurement ""
attr network AODVgrayhole
attr processid 9989
attr repetition 0
attr replication #0
attr resultdir results
attr runnumber 0
attr seedset 0
param *.host[*].wlan[*].radio.transmitter.communicationRange 250m
param **.wlan[*].typename "\"AckingWirelessInterface\""
param **.wlan[*].bitrate 2Mbps
param **.wlan[*].mac.headerLength 23B
param **.wlan[*].radio.typename "\"UnitDiskRadio\""
param **.wlan[*].radio.transmitter.headerLength 96b
param **.wlan[*].radio.transmitter.communicationRange 250m
param **.wlan[*].radio.transmitter.interferenceRange 0m
param **.wlan[*].radio.transmitter.detectionRange 0m
param **.wlan[*].radio.receiver.ignoreInterference true
param *.numHosts 18
param **.host[*].mobility.typename "\"StationaryMobility\""
param **.mobility.constraintAreaMinZ 0m
param **.mobility.constraintAreaMaxZ 0m
param **.mobility.constraintAreaMinX 5m
param **.mobility.constraintAreaMinY 5m
param **.mobility.constraintAreaMaxX 785m
param **.mobility.constraintAreaMaxY 490m
param *.visualizer.sceneVisualizer.descriptionFigure "\"title\""
param *.visualizer.dataLinkVisualizer.displayLinks true
param *.visualizer.networkRouteVisualizer.displayRoutes true
param *.visualizer.networkRouteVisualizer.lineShift 0
param *.visualizer.networkRouteVisualizer.packetFilter "\"UDPData*\""
param *.visualizer.physicalLinkVisualizer.packetFilter "\"UDPData*\""
param *.sender.numApps 1
param *.sender.app[0].typename "\"UdpBasicApp\""
param *.sender.app[0].destAddresses "\"receiver\""
param *.sender.app[0].destPort 1000
param *.sender.app[0].sendInterval 1s
param *.sender.app[0].startTime 0s
param *.sender.app[0].messageLength 512Byte
param *.sender.app[0].packetName "\"UDPdata\""
param *.receiver.numApps 1
param *.receiver.app[0].typename "\"UdpSink\""
param *.receiver.app[0].localPort 1000
param **.hasStatus true

vector 0 AODVgrayhole.host[0].wlan[0].radio radioMode:vector ETV
attr interpolationmode sample-hold
attr source radioModeChanged
attr title "Radio mode, vector"
vector 1 AODVgrayhole.host[1].wlan[0].radio radioMode:vector ETV
attr interpolationmode sample-hold
attr source radioModeChanged
attr title "Radio mode, vector"
vector 2 AODVgrayhole.host[2].wlan[0].radio radioMode:vector ETV
attr interpolationmode sample-hold
attr source radioModeChanged
attr title "Radio mode, vector"
vector 3 AODVgrayhole.host[3].wlan[0].radio radioMode:vector ETV
attr interpolationmode sample-hold
attr source radioModeChanged
attr title "Radio mode, vector"
vector 4 AODVgrayhole.host[4].wlan[0].radio radioMode:vector ETV
attr interpolationmode sample-hold
attr source radioModeChanged
attr title "Radio mode, vector"
vector 5 AODVgrayhole.host[5].wlan[0].radio radioMode:vector ETV
attr interpolationmode sample-hold
attr source radioModeChanged
attr title "Radio mode, vector"
vector 6 AODVgrayhole.host[6].wlan[0].radio radioMode:vector ETV
attr interpolationmode sample-hold
attr source radioModeChanged
attr title "Radio mode, vector"
vector 7 AODVgrayhole.host[7].wlan[0].radio radioMode:vector ETV
attr interpolationmode sample-hold
attr source radioModeChanged
attr title "Radio mode, vector"
vector 8 AODVgrayhole.host[8].wlan[0].radio radioMode:vector ETV
attr interpolationmode sample-hold
attr source radioModeChanged
attr title "Radio mode, vector"
vector 9 AODVgrayhole.host[9].wlan[0].radio radioMode:vector ETV
attr interpolationmode sample-hold
attr source radioModeChanged
attr title "Radio mode, vector"
vector 10 AODVgrayhole.host[10].wlan[0].radio radioMode:vector ETV
attr interpolationmode sample-hold
attr source radioModeChanged
attr title "Radio mode, vector"
vector 11 AODVgrayhole.host[11].wlan[0].radio radioMode:vector ETV
attr interpolationmode sample-hold
attr source radioModeChanged
attr title "Radio mode, vector"
vector 12 AODVgrayhole.host[12].wlan[0].radio radioMode:vector ETV
attr interpolationmode sample-hold
attr source radioModeChanged
attr title "Radio mode, vector"
vector 13 AODVgrayhole.host[13].wlan[0].radio radioMode:vector ETV
attr interpolationmode sample-hold
attr source radioModeChanged
attr title "Radio mode, vector"
vector 14 AODVgrayhole.host[14].wlan[0].radio radioMode:vector ETV
attr interpolationmode sample-hold
attr source radioModeChanged
attr title "Radio mode, vector"
vector 15 AODVgrayhole.host[15].wlan[0].radio radioMode:vector ETV
attr interpolationmode sample-hold
attr source radioModeChanged
attr title "Radio mode, vector"
vector 16 AODVgrayhole.host[16].wlan[0].radio radioMode:vector ETV
attr interpolationmode sample-hold
attr source radioModeChanged
attr title "Radio mode, vector"
vector 17 AODVgrayhole.host[17].wlan[0].radio radioMode:vector ETV
attr interpolationmode sample-hold
attr source radioModeChanged
attr title "Radio mode, vector"
vector 18 AODVgrayhole.sender.wlan[0].radio radioMode:vector ETV
attr interpolationmode sample-hold
attr source radioModeChanged
attr title "Radio mode, vector"
vector 19 AODVgrayhole.receiver.wlan[0].radio radioMode:vector ETV
attr interpolationmode sample-hold
attr source radioModeChanged
attr title "Radio mode, vector"
vector 20 AODVgrayhole.ntu_Grayholer.wlan[0].radio radioMode:vector ETV
attr interpolationmode sample-hold
attr source radioModeChanged
attr title "Radio mode, vector"
vector 21 AODVgrayhole.host[0].wlan[0].radio receptionState:vector ETV
attr interpolationmode sample-hold
attr source receptionStateChanged
attr title "Radio reception state, vector"
vector 22 AODVgrayhole.host[0].wlan[0].radio transmissionState:vector ETV
attr interpolationmode sample-hold
attr source transmissionStateChanged
attr title "Radio transmission state, vector"
vector 23 AODVgrayhole.host[1].wlan[0].radio receptionState:vector ETV
attr interpolationmode sample-hold
attr source receptionStateChanged
attr title "Radio reception state, vector"
vector 24 AODVgrayhole.host[1].wlan[0].radio transmissionState:vector ETV
attr interpolationmode sample-hold
attr source transmissionStateChanged
attr title "Radio transmission state, vector"
vector 25 AODVgrayhole.host[2].wlan[0].radio receptionState:vector ETV
attr interpolationmode sample-hold
attr source receptionStateChanged
attr title "Radio reception state, vector"
vector 26 AODVgrayhole.host[2].wlan[0].radio transmissionState:vector ETV
attr interpolationmode sample-hold
attr source transmissionStateChanged
attr title "Radio transmission state, vector"
vector 27 AODVgrayhole.host[3].wlan[0].radio receptionState:vector ETV
attr interpolationmode sample-hold
attr source receptionStateChanged
attr title "Radio reception state, vector"
vector 28 AODVgrayhole.host[3].wlan[0].radio transmissionState:vector ETV
attr interpolationmode sample-hold
attr source transmissionStateChanged
attr title "Radio transmission state, vector"
vector 29 AODVgrayhole.host[4].wlan[0].radio receptionState:vector ETV
attr interpolationmode sample-hold
attr source receptionStateChanged
attr title "Radio reception state, vector"
vector 30 AODVgrayhole.host[4].wlan[0].radio transmissionState:vector ETV
attr interpolationmode sample-hold
attr source transmissionStateChanged
attr title "Radio transmission state, vector"
vector 31 AODVgrayhole.host[5].wlan[0].radio receptionState:vector ETV
attr interpolationmode sample-hold
attr source receptionStateChanged
attr title "Radio reception state, vector"
vector 32 AODVgrayhole.host[5].wlan[0].radio transmissionState:vector ETV
attr interpolationmode sample-hold
attr source transmissionStateChanged
attr title "Radio transmission state, vector"
vector 33 AODVgrayhole.host[6].wlan[0].radio receptionState:vector ETV
attr interpolationmode sample-hold
attr source receptionStateChanged
attr title "Radio reception state, vector"
vector 34 AODVgrayhole.host[6].wlan[0].radio transmissionState:vector ETV
attr interpolationmode sample-hold
attr source transmissionStateChanged
attr title "Radio transmission state, vector"
vector 35 AODVgrayhole.host[7].wlan[0].radio receptionState:vector ETV
attr interpolationmode sample-hold
attr source receptionStateChanged
attr title "Radio reception state, vector"
vector 36 AODVgrayhole.host[7].wlan[0].radio transmissionState:vector ETV
attr interpolationmode sample-hold
attr source transmissionStateChanged
attr title "Radio transmission state, vector"
vector 37 AODVgrayhole.host[8].wlan[0].radio receptionState:vector ETV
attr interpolationmode sample-hold
attr source receptionStateChanged
attr title "Radio reception state, vector"
vector 38 AODVgrayhole.host[8].wlan[0].radio transmissionState:vector ETV
attr interpolationmode sample-hold
attr source transmissionStateChanged
attr title "Radio transmission state, vector"
vector 39 AODVgrayhole.host[9].wlan[0].radio receptionState:vector ETV
attr interpolationmode sample-hold
attr source receptionStateChanged
attr title "Radio reception state, vector"
vector 40 AODVgrayhole.host[9].wlan[0].radio transmissionState:vector ETV
attr interpolationmode sample-hold
attr source transmissionStateChanged
attr title "Radio transmission state, vector"
vector 41 AODVgrayhole.host[10].wlan[0].radio receptionState:vector ETV
attr interpolationmode sample-hold
attr source receptionStateChanged
attr title "Radio reception state, vector"
vector 42 AODVgrayhole.host[10].wlan[0].radio transmissionState:vector ETV
attr interpolationmode sample-hold
attr source transmissionStateChanged
attr title "Radio transmission state, vector"
vector 43 AODVgrayhole.host[11].wlan[0].radio receptionState:vector ETV
attr interpolationmode sample-hold
attr source receptionStateChanged
attr title "Radio reception state, vector"
vector 44 AODVgrayhole.host[11].wlan[0].radio transmissionState:vector ETV
attr interpolationmode sample-hold
attr source transmissionStateChanged
attr title "Radio transmission state, vector"
vector 45 AODVgrayhole.host[12].wlan[0].radio receptionState:vector ETV
attr interpolationmode sample-hold
attr source receptionStateChanged
attr title "Radio reception state, vector"
vector 46 AODVgrayhole.host[12].wlan[0].radio transmissionState:vector ETV
attr interpolationmode sample-hold
attr source transmissionStateChanged
attr title "Radio transmission state, vector"
vector 47 AODVgrayhole.host[13].wlan[0].radio receptionState:vector ETV
attr interpolationmode sample-hold
attr source receptionStateChanged
attr title "Radio reception state, vector"
vector 48 AODVgrayhole.host[13].wlan[0].radio transmissionState:vector ETV
attr interpolationmode sample-hold
attr source transmissionStateChanged
attr title "Radio transmission state, vector"
vector 49 AODVgrayhole.host[14].wlan[0].radio receptionState:vector ETV
attr interpolationmode sample-hold
attr source receptionStateChanged
attr title "Radio reception state, vector"
vector 50 AODVgrayhole.host[14].wlan[0].radio transmissionState:vector ETV
attr interpolationmode sample-hold
attr source transmissionStateChanged
attr title "Radio transmission state, vector"
vector 51 AODVgrayhole.host[15].wlan[0].radio receptionState:vector ETV
attr interpolationmode sample-hold
attr source receptionStateChanged
attr title "Radio reception state, vector"
vector 52 AODVgrayhole.host[15].wlan[0].radio transmissionState:vector ETV
attr interpolationmode sample-hold
attr source transmissionStateChanged
attr title "Radio transmission state, vector"
vector 53 AODVgrayhole.host[16].wlan[0].radio receptionState:vector ETV
attr interpolationmode sample-hold
attr source receptionStateChanged
attr title "Radio reception state, vector"
vector 54 AODVgrayhole.host[16].wlan[0].radio transmissionState:vector ETV
attr interpolationmode sample-hold
attr source transmissionStateChanged
attr title "Radio transmission state, vector"
vector 55 AODVgrayhole.host[17].wlan[0].radio receptionState:vector ETV
attr interpolationmode sample-hold
attr source receptionStateChanged
attr title "Radio reception state, vector"
vector 56 AODVgrayhole.host[17].wlan[0].radio transmissionState:vector ETV
attr interpolationmode sample-hold
attr source transmissionStateChanged
attr title "Radio transmission state, vector"
vector 57 AODVgrayhole.sender.wlan[0].radio receptionState:vector ETV
attr interpolationmode sample-hold
attr source receptionStateChanged
attr title "Radio reception state, vector"
vector 58 AODVgrayhole.sender.wlan[0].radio transmissionState:vector ETV
attr interpolationmode sample-hold
attr source transmissionStateChanged
attr title "Radio transmission state, vector"
vector 59 AODVgrayhole.receiver.wlan[0].radio receptionState:vector ETV
attr interpolationmode sample-hold
attr source receptionStateChanged
attr title "Radio reception state, vector"
vector 60 AODVgrayhole.receiver.wlan[0].radio transmissionState:vector ETV
attr interpolationmode sample-hold
attr source transmissionStateChanged
attr title "Radio transmission state, vector"
vector 61 AODVgrayhole.ntu_Grayholer.wlan[0].radio receptionState:vector ETV
attr interpolationmode sample-hold
attr source receptionStateChanged
attr title "Radio reception state, vector"
vector 62 AODVgrayhole.ntu_Grayholer.wlan[0].radio transmissionState:vector ETV
attr interpolationmode sample-hold
attr source transmissionStateChanged
attr title "Radio transmission state, vector"
vector 63 AODVgrayhole.sender.app[0] packetSent:vector(packetBytes) ETV
attr interpolationmode none
attr source packetSent
attr title "packets sent, vector(packetBytes)"
vector 64 AODVgrayhole.sender.udp packetSent:vector(packetBytes) ETV
attr interpolationmode none
attr source packetSent
attr title "packets sent, vector(packetBytes)"
vector 65 AODVgrayhole.sender.wlan[0].mac rcvdPkFromHl:vector(packetBytes) ETV
attr interpolationmode none
attr source packetReceivedFromUpper
attr title "packets received from higher layer, vector(packetBytes)"
vector 66 AODVgrayhole.sender.wlan[0].mac.queue packetPushed:vector(packetBytes) ETV
attr interpolationmode none
attr title "packet pushed, vector(packetBytes)"
vector 67 AODVgrayhole.sender.wlan[0].mac.queue queueLength:vector ETV
attr interpolationmode sample-hold
attr source "count(packetPushed) - count(packetPopped) - count(packetRemoved) - count(packetDropped)"
attr title "queue length, vector"
vector 68 AODVgrayhole.sender.wlan[0].mac.queue packetPopped:vector(packetBytes) ETV
attr interpolationmode none
attr title "packet popped, vector(packetBytes)"
vector 69 AODVgrayhole.sender.wlan[0].mac.queue queueingTime:vector ETV
attr interpolationmode none
attr source queueingTime(packetPopped)
attr title "queueing times, vector"
attr unit s
vector 70 AODVgrayhole.sender.wlan[0].mac sentDownPk:vector(packetBytes) ETV
attr interpolationmode none
attr source packetSentToLower
attr title "packets sent to lower layer, vector(packetBytes)"
vector 71 AODVgrayhole.host[10].wlan[0].mac rcvdPkFromLl:vector(packetBytes) ETV
attr interpolationmode none
attr source packetReceivedFromLower
attr title "packets received from lower layer, vector(packetBytes)"
vector 72 AODVgrayhole.host[10].wlan[0].mac passedUpPk:vector(packetBytes) ETV
attr interpolationmode none
attr source packetSentToUpper
attr title "packets passed to higher layer, vector(packetBytes)"
vector 73 AODVgrayhole.host[10].udp packetReceived:vector(packetBytes) ETV
attr interpolationmode none
attr source packetReceived
attr title "packets received, vector(packetBytes)"
vector 74 AODVgrayhole.host[10].udp passedUpPk:vector(count) ETV
attr interpolationmode none
attr source packetSentToUpper
attr title "packets passed up, vector(count)"
vector 75 AODVgrayhole.host[8].wlan[0].mac rcvdPkFromLl:vector(packetBytes) ETV
attr interpolationmode none
attr source packetReceivedFromLower
attr title "packets received from lower layer, vector(packetBytes)"
vector 76 AODVgrayhole.host[8].wlan[0].mac passedUpPk:vector(packetBytes) ETV
attr interpolationmode none
attr source packetSentToUpper
attr title "packets passed to higher layer, vector(packetBytes)"
vector 77 AODVgrayhole.host[8].udp packetReceived:vector(packetBytes) ETV
attr interpolationmode none
attr source packetReceived
attr title "packets received, vector(packetBytes)"
vector 78 AODVgrayhole.host[8].udp passedUpPk:vector(count) ETV
attr interpolationmode none
attr source packetSentToUpper
attr title "packets passed up, vector(count)"
vector 79 AODVgrayhole.host[11].wlan[0].mac rcvdPkFromLl:vector(packetBytes) ETV
attr interpolationmode none
attr source packetReceivedFromLower
attr title "packets received from lower layer, vector(packetBytes)"
vector 80 AODVgrayhole.host[11].wlan[0].mac passedUpPk:vector(packetBytes) ETV
attr interpolationmode none
attr source packetSentToUpper
attr title "packets passed to higher layer, vector(packetBytes)"
vector 81 AODVgrayhole.host[11].udp packetReceived:vector(packetBytes) ETV
attr interpolationmode none
attr source packetReceived
attr title "packets received, vector(packetBytes)"
vector 82 AODVgrayhole.host[11].udp passedUpPk:vector(count) ETV
attr interpolationmode none
attr source packetSentToUpper
attr title "packets passed up, vector(count)"
vector 83 AODVgrayhole.host[2].wlan[0].mac rcvdPkFromLl:vector(packetBytes) ETV
attr interpolationmode none
attr source packetReceivedFromLower
attr title "packets received from lower layer, vector(packetBytes)"
vector 84 AODVgrayhole.host[2].wlan[0].mac passedUpPk:vector(packetBytes) ETV
attr interpolationmode none
attr source packetSentToUpper
attr title "packets passed to higher layer, vector(packetBytes)"
vector 85 AODVgrayhole.host[2].udp packetReceived:vector(packetBytes) ETV
attr interpolationmode none
attr source packetReceived
attr title "packets received, vector(packetBytes)"
vector 86 AODVgrayhole.host[2].udp passedUpPk:vector(count) ETV
attr interpolationmode none
attr source packetSentToUpper
attr title "packets passed up, vector(count)"
vector 87 AODVgrayhole.host[7].wlan[0].mac rcvdPkFromLl:vector(packetBytes) ETV
attr interpolationmode none
attr source packetReceivedFromLower
attr title "packets received from lower layer, vector(packetBytes)"
vector 88 AODVgrayhole.host[7].wlan[0].mac passedUpPk:vector(packetBytes) ETV
attr interpolationmode none
attr source packetSentToUpper
attr title "packets passed to higher layer, vector(packetBytes)"
vector 89 AODVgrayhole.host[7].udp packetReceived:vector(packetBytes) ETV
attr interpolationmode none
attr source packetReceived
attr title "packets received, vector(packetBytes)"
vector 90 AODVgrayhole.host[7].udp passedUpPk:vector(count) ETV
attr interpolationmode none
attr source packetSentToUpper
attr title "packets passed up, vector(count)"
vector 91 AODVgrayhole.host[7].udp packetSent:vector(packetBytes) ETV
attr interpolationmode none
attr source packetSent
attr title "packets sent, vector(packetBytes)"
vector 92 AODVgrayhole.host[7].wlan[0].mac rcvdPkFromHl:vector(packetBytes) ETV
attr interpolationmode none
attr source packetReceivedFromUpper
attr title "packets received from higher layer, vector(packetBytes)"
vector 93 AODVgrayhole.host[7].wlan[0].mac.queue packetPushed:vector(packetBytes) ETV
attr interpolationmode none
attr title "packet pushed, vector(packetBytes)"
vector 94 AODVgrayhole.host[7].wlan[0].mac.queue queueLength:vector ETV
attr interpolationmode sample-hold
attr source "count(packetPushed) - count(packetPopped) - count(packetRemoved) - count(packetDropped)"
attr title "queue length, vector"
vector 95 AODVgrayhole.host[7].wlan[0].mac.queue packetPopped:vector(packetBytes) ETV
attr interpolationmode none
attr title "packet popped, vector(packetBytes)"
vector 96 AODVgrayhole.host[7].wlan[0].mac.queue queueingTime:vector ETV
attr interpolationmode none
attr source queueingTime(packetPopped)
attr title "queueing times, vector"
attr unit s
vector 97 AODVgrayhole.host[7].wlan[0].mac sentDownPk:vector(packetBytes) ETV
attr interpolationmode none
attr source packetSentToLower
attr title "packets sent to lower layer, vector(packetBytes)"
vector 98 AODVgrayhole.host[11].udp packetSent:vector(packetBytes) ETV
attr interpolationmode none
attr source packetSent
attr title "packets sent, vector(packetBytes)"
vector 99 AODVgrayhole.host[11].wlan[0].mac rcvdPkFromHl:vector(packetBytes) ETV
attr interpolationmode none
attr source packetReceivedFromUpper
attr title "packets received from higher layer, vector(packetBytes)"
vector 100 AODVgrayhole.host[11].wlan[0].mac.queue packetPushed:vector(packetBytes) ETV
attr interpolationmode none
attr title "packet pushed, vector(packetBytes)"
vector 101 AODVgrayhole.host[11].wlan[0].mac.queue queueLength:vector ETV
attr interpolationmode sample-hold
attr source "count(packetPushed) - count(packetPopped) - count(packetRemoved) - count(packetDropped)"
attr title "queue length, vector"
vector 102 AODVgrayhole.host[11].wlan[0].mac.queue packetPopped:vector(packetBytes) ETV
attr interpolationmode none
attr title "packet popped, vector(packetBytes)"
vector 103 AODVgrayhole.host[11].wlan[0].mac.queue queueingTime:vector ETV
attr interpolationmode none
attr source queueingTime(packetPopped)
attr title "queueing times, vector"
attr unit s
vector 104 AODVgrayhole.host[11].wlan[0].mac sentDownPk:vector(packetBytes) ETV
attr interpolationmode none
attr source packetSentToLower
attr title "packets sent to lower layer, vector(packetBytes)"
vector 105 AODVgrayhole.host[9].wlan[0].mac rcvdPkFromLl:vector(packetBytes) ETV
attr interpolationmode none
attr source packetReceivedFromLower
attr title "packets received from lower layer, vector(packetBytes)"
vector 106 AODVgrayhole.host[9].wlan[0].mac passedUpPk:vector(packetBytes) ETV
attr interpolationmode none
attr source packetSentToUpper
attr title "packets passed to higher layer, vector(packetBytes)"
vector 107 AODVgrayhole.host[9].udp packetReceived:vector(packetBytes) ETV
attr interpolationmode none
attr source packetReceived
attr title "packets received, vector(packetBytes)"
vector 108 AODVgrayhole.host[9].udp passedUpPk:vector(count) ETV
attr interpolationmode none
attr source packetSentToUpper
attr title "packets passed up, vector(count)"
vector 109 AODVgrayhole.ntu_Grayholer.wlan[0].mac rcvdPkFromLl:vector(packetBytes) ETV
attr interpolationmode none
attr source packetReceivedFromLower
attr title "packets received from lower layer, vector(packetBytes)"
vector 110 AODVgrayhole.ntu_Grayholer.wlan[0].mac passedUpPk:vector(packetBytes) ETV
attr interpolationmode none
attr source packetSentToUpper
attr title "packets passed to higher layer, vector(packetBytes)"
vector 111 AODVgrayhole.ntu_Grayholer.udp packetReceived:vector(packetBytes) ETV
attr interpolationmode none
attr source packetReceived
attr title "packets received, vector(packetBytes)"
vector 112 AODVgrayhole.ntu_Grayholer.udp passedUpPk:vector(count) ETV
attr interpolationmode none
attr source packetSentToUpper
attr title "packets passed up, vector(count)"
vector 113 AODVgrayhole.ntu_Grayholer.udp packetSent:vector(packetBytes) ETV
attr interpolationmode none
attr source packetSent
attr title "packets sent, vector(packetBytes)"
vector 114 AODVgrayhole.ntu_Grayholer.ipv4.arp arpRequestSent:vector(packetBytes) ETV
attr source arpRequestSent
attr title "ARP request sent, vector(packetBytes)"
vector 115 AODVgrayhole.ntu_Grayholer.wlan[0].mac rcvdPkFromHl:vector(packetBytes) ETV
attr interpolationmode none
attr source packetReceivedFromUpper
attr title "packets received from higher layer, vector(packetBytes)"
vector 116 AODVgrayhole.ntu_Grayholer.wlan[0].mac.queue packetPushed:vector(packetBytes) ETV
attr interpolationmode none
attr title "packet pushed, vector(packetBytes)"
vector 117 AODVgrayhole.ntu_Grayholer.wlan[0].mac.queue queueLength:vector ETV
attr interpolationmode sample-hold
attr source "count(packetPushed) - count(packetPopped) - count(packetRemoved) - count(packetDropped)"
attr title "queue length, vector"
vector 118 AODVgrayhole.ntu_Grayholer.wlan[0].mac.queue packetPopped:vector(packetBytes) ETV
attr interpolationmode none
attr title "packet popped, vector(packetBytes)"
vector 119 AODVgrayhole.ntu_Grayholer.wlan[0].mac.queue queueingTime:vector ETV
attr interpolationmode none
attr source queueingTime(packetPopped)
attr title "queueing times, vector"
attr unit s
vector 120 AODVgrayhole.ntu_Grayholer.wlan[0].mac sentDownPk:vector(packetBytes) ETV
attr interpolationmode none
attr source packetSentToLower
attr title "packets sent to lower layer, vector(packetBytes)"
vector 121 AODVgrayhole.host[15].wlan[0].mac rcvdPkFromLl:vector(packetBytes) ETV
attr interpolationmode none
attr source packetReceivedFromLower
attr title "packets received from lower layer, vector(packetBytes)"
vector 122 AODVgrayhole.host[15].wlan[0].mac passedUpPk:vector(packetBytes) ETV
attr interpolationmode none
attr source packetSentToUpper
attr title "packets passed to higher layer, vector(packetBytes)"
vector 123 AODVgrayhole.host[15].udp packetReceived:vector(packetBytes) ETV
attr interpolationmode none
attr source packetReceived
attr title "packets received, vector(packetBytes)"
vector 124 AODVgrayhole.host[15].udp passedUpPk:vector(count) ETV
attr interpolationmode none
attr source packetSentToUpper
attr title "packets passed up, vector(count)"
vector 125 AODVgrayhole.host[1].wlan[0].mac rcvdPkFromLl:vector(packetBytes) ETV
attr interpolationmode none
attr source packetReceivedFromLower
attr title "packets received from lower layer, vector(packetBytes)"
vector 126 AODVgrayhole.host[1].wlan[0].mac passedUpPk:vector(packetBytes) ETV
attr interpolationmode none
attr source packetSentToUpper
attr title "packets passed to higher layer, vector(packetBytes)"
vector 127 AODVgrayhole.host[1].udp packetReceived:vector(packetBytes) ETV
attr interpolationmode none
attr source packetReceived
attr title "packets received, vector(packetBytes)"
vector 128 AODVgrayhole.host[1].udp passedUpPk:vector(count) ETV
attr interpolationmode none
attr source packetSentToUpper
attr title "packets passed up, vector(count)"
vector 129 AODVgrayhole.host[16].wlan[0].mac rcvdPkFromLl:vector(packetBytes) ETV
attr interpolationmode none
attr source packetReceivedFromLower
attr title "packets received from lower layer, vector(packetBytes)"
vector 130 AODVgrayhole.host[16].wlan[0].mac passedUpPk:vector(packetBytes) ETV
attr interpolationmode none
attr source packetSentToUpper
attr title "packets passed to higher layer, vector(packetBytes)"
vector 131 AODVgrayhole.host[16].udp packetReceived:vector(packetBytes) ETV
attr interpolationmode none
attr source packetReceived
attr title "packets received, vector(packetBytes)"
vector 132 AODVgrayhole.host[16].udp passedUpPk:vector(count) ETV
attr interpolationmode none
attr source packetSentToUpper
attr title "packets passed up, vector(count)"
vector 133 AODVgrayhole.host[4].wlan[0].mac rcvdPkFromLl:vector(packetBytes) ETV
attr interpolationmode none
attr source packetReceivedFromLower
attr title "packets received from lower layer, vector(packetBytes)"
vector 134 AODVgrayhole.host[4].wlan[0].mac passedUpPk:vector(packetBytes) ETV
attr interpolationmode none
attr source packetSentToUpper
attr title "packets passed to higher layer, vector(packetBytes)"
vector 135 AODVgrayhole.host[4].udp packetReceived:vector(packetBytes) ETV
attr interpolationmode none
attr source packetReceived
attr title "packets received, vector(packetBytes)"
vector 136 AODVgrayhole.host[4].udp passedUpPk:vector(count) ETV
attr interpolationmode none
attr source packetSentToUpper
attr title "packets passed up, vector(count)"
vector 137 AODVgrayhole.sender.wlan[0].mac rcvdPkFromLl:vector(packetBytes) ETV
attr interpolationmode none
attr source packetReceivedFromLower
attr title "packets received from lower layer, vector(packetBytes)"
vector 138 AODVgrayhole.sender.wlan[0].mac passedUpPk:vector(packetBytes) ETV
attr interpolationmode none
attr source packetSentToUpper
attr title "packets passed to higher layer, vector(packetBytes)"
vector 139 AODVgrayhole.sender.udp packetReceived:vector(packetBytes) ETV
attr interpolationmode none
attr source packetReceived
attr title "packets received, vector(packetBytes)"
vector 140 AODVgrayhole.sender.udp passedUpPk:vector(count) ETV
attr interpolationmode none
attr source packetSentToUpper
attr title "packets passed up, vector(count)"
vector 141 AODVgrayhole.host[17].wlan[0].mac rcvdPkFromLl:vector(packetBytes) ETV
attr interpolationmode none
attr source packetReceivedFromLower
attr title "packets received from lower layer, vector(packetBytes)"
vector 142 AODVgrayhole.host[17].wlan[0].mac passedUpPk:vector(packetBytes) ETV
attr interpolationmode none
attr source packetSentToUpper
attr title "packets passed to higher layer, vector(packetBytes)"
vector 143 AODVgrayhole.host[12].wlan[0].mac rcvdPkFromLl:vector(packetBytes) ETV
attr interpolationmode none
attr source packetReceivedFromLower
attr title "packets received from lower layer, vector(packetBytes)"
vector 144 AODVgrayhole.host[12].wlan[0].mac passedUpPk:vector(packetBytes) ETV
attr interpolationmode none
attr source packetSentToUpper
attr title "packets passed to higher layer, vector(packetBytes)"
vector 145 AODVgrayhole.host[12].udp packetReceived:vector(packetBytes) ETV
attr interpolationmode none
attr source packetReceived
attr title "packets received, vector(packetBytes)"
vector 146 AODVgrayhole.host[12].udp passedUpPk:vector(count) ETV
attr interpolationmode none
attr source packetSentToUpper
attr title "packets passed up, vector(count)"
vector 147 AODVgrayhole.host[10].udp packetSent:vector(packetBytes) ETV
attr interpolationmode none
attr source packetSent
attr title "packets sent, vector(packetBytes)"
vector 148 AODVgrayhole.host[10].wlan[0].mac rcvdPkFromHl:vector(packetBytes) ETV
attr interpolationmode none
attr source packetReceivedFromUpper
attr title "packets received from higher layer, vector(packetBytes)"
vector 149 AODVgrayhole.host[10].wlan[0].mac.queue packetPushed:vector(packetBytes) ETV
attr interpolationmode none
attr title "packet pushed, vector(packetBytes)"
vector 150 AODVgrayhole.host[10].wlan[0].mac.queue queueLength:vector ETV
attr interpolationmode sample-hold
attr source "count(packetPushed) - count(packetPopped) - count(packetRemoved) - count(packetDropped)"
attr title "queue length, vector"
vector 151 AODVgrayhole.host[10].wlan[0].mac.queue packetPopped:vector(packetBytes) ETV
attr interpolationmode none
attr title "packet popped, vector(packetBytes)"
vector 152 AODVgrayhole.host[10].wlan[0].mac.queue queueingTime:vector ETV
attr interpolationmode none
attr source queueingTime(packetPopped)
attr title "queueing times, vector"
attr unit s
vector 153 AODVgrayhole.host[10].wlan[0].mac sentDownPk:vector(packetBytes) ETV
attr interpolationmode none
attr source packetSentToLower
attr title "packets sent to lower layer, vector(packetBytes)"
vector 154 AODVgrayhole.host[8].udp packetSent:vector(packetBytes) ETV
attr interpolationmode none
attr source packetSent
attr title "packets sent, vector(packetBytes)"
vector 155 AODVgrayhole.host[8].wlan[0].mac rcvdPkFromHl:vector(packetBytes) ETV
attr interpolationmode none
attr source packetReceivedFromUpper
attr title "packets received from higher layer, vector(packetBytes)"
vector 156 AODVgrayhole.host[8].wlan[0].mac.queue packetPushed:vector(packetBytes) ETV
attr interpolationmode none
attr title "packet pushed, vector(packetBytes)"
vector 157 AODVgrayhole.host[8].wlan[0].mac.queue queueLength:vector ETV
attr interpolationmode sample-hold
attr source "count(packetPushed) - count(packetPopped) - count(packetRemoved) - count(packetDropped)"
attr title "queue length, vector"
vector 158 AODVgrayhole.host[8].wlan[0].mac.queue packetPopped:vector(packetBytes) ETV
attr interpolationmode none
attr title "packet popped, vector(packetBytes)"
vector 159 AODVgrayhole.host[8].wlan[0].mac.queue queueingTime:vector ETV
attr interpolationmode none
attr source queueingTime(packetPopped)
attr title "queueing times, vector"
attr unit s
vector 160 AODVgrayhole.host[8].wlan[0].mac sentDownPk:vector(packetBytes) ETV
attr interpolationmode none
attr source packetSentToLower
attr title "packets sent to lower layer, vector(packetBytes)"
vector 161 AODVgrayhole.host[2].udp packetSent:vector(packetBytes) ETV
attr interpolationmode none
attr source packetSent
attr title "packets sent, vector(packetBytes)"
vector 162 AODVgrayhole.host[2].wlan[0].mac rcvdPkFromHl:vector(packetBytes) ETV
attr interpolationmode none
attr source packetReceivedFromUpper
attr title "packets received from higher layer, vector(packetBytes)"
vector 163 AODVgrayhole.host[2].wlan[0].mac.queue packetPushed:vector(packetBytes) ETV
attr interpolationmode none
attr title "packet pushed, vector(packetBytes)"
vector 164 AODVgrayhole.host[2].wlan[0].mac.queue queueLength:vector ETV
attr interpolationmode sample-hold
attr source "count(packetPushed) - count(packetPopped) - count(packetRemoved) - count(packetDropped)"
attr title "queue length, vector"
vector 165 AODVgrayhole.host[2].wlan[0].mac.queue packetPopped:vector(packetBytes) ETV
attr interpolationmode none
attr title "packet popped, vector(packetBytes)"
vector 166 AODVgrayhole.host[2].wlan[0].mac.queue queueingTime:vector ETV
attr interpolationmode none
attr source queueingTime(packetPopped)
attr title "queueing times, vector"
attr unit s
vector 167 AODVgrayhole.host[2].wlan[0].mac sentDownPk:vector(packetBytes) ETV
attr interpolationmode none
attr source packetSentToLower
attr title "packets sent to lower layer, vector(packetBytes)"
vector 168 AODVgrayhole.host[1].udp packetSent:vector(packetBytes) ETV
attr interpolationmode none
attr source packetSent
attr title "packets sent, vector(packetBytes)"
vector 169 AODVgrayhole.host[1].wlan[0].mac rcvdPkFromHl:vector(packetBytes) ETV
attr interpolationmode none
attr source packetReceivedFromUpper
attr title "packets received from higher layer, vector(packetBytes)"
vector 170 AODVgrayhole.host[1].wlan[0].mac.queue packetPushed:vector(packetBytes) ETV
attr interpolationmode none
attr title "packet pushed, vector(packetBytes)"
vector 171 AODVgrayhole.host[1].wlan[0].mac.queue queueLength:vector ETV
attr interpolationmode sample-hold
attr source "count(packetPushed) - count(packetPopped) - count(packetRemoved) - count(packetDropped)"
attr title "queue length, vector"
vector 172 AODVgrayhole.host[1].wlan[0].mac.queue packetPopped:vector(packetBytes) ETV
attr interpolationmode none
attr title "packet popped, vector(packetBytes)"
vector 173 AODVgrayhole.host[1].wlan[0].mac.queue queueingTime:vector ETV
attr interpolationmode none
attr source queueingTime(packetPopped)
attr title "queueing times, vector"
attr unit s
vector 174 AODVgrayhole.host[1].wlan[0].mac sentDownPk:vector(packetBytes) ETV
attr interpolationmode none
attr source packetSentToLower
attr title "packets sent to lower layer, vector(packetBytes)"
vector 175 AODVgrayhole.host[12].udp packetSent:vector(packetBytes) ETV
attr interpolationmode none
attr source packetSent
attr title "packets sent, vector(packetBytes)"
vector 176 AODVgrayhole.host[12].wlan[0].mac rcvdPkFromHl:vector(packetBytes) ETV
attr interpolationmode none
attr source packetReceivedFromUpper
attr title "packets received from higher layer, vector(packetBytes)"
vector 177 AODVgrayhole.host[12].wlan[0].mac.queue packetPushed:vector(packetBytes) ETV
attr interpolationmode none
attr title "packet pushed, vector(packetBytes)"
vector 178 AODVgrayhole.host[12].wlan[0].mac.queue queueLength:vector ETV
attr interpolationmode sample-hold
attr source "count(packetPushed) - count(packetPopped) - count(packetRemoved) - count(packetDropped)"
attr title "queue length, vector"
vector 179 AODVgrayhole.host[12].wlan[0].mac.queue packetPopped:vector(packetBytes) ETV
attr interpolationmode none
attr title "packet popped, vector(packetBytes)"
vector 180 AODVgrayhole.host[12].wlan[0].mac.queue queueingTime:vector ETV
attr interpolationmode none
attr source queueingTime(packetPopped)
attr title "queueing times, vector"
attr unit s
vector 181 AODVgrayhole.host[12].wlan[0].mac sentDownPk:vector(packetBytes) ETV
attr interpolationmode none
attr source packetSentToLower
attr title "packets sent to lower layer, vector(packetBytes)"
vector 182 AODVgrayhole.host[9].udp packetSent:vector(packetBytes) ETV
attr interpolationmode none
attr source packetSent
attr title "packets sent, vector(packetBytes)"
vector 183 AODVgrayhole.host[9].wlan[0].mac rcvdPkFromHl:vector(packetBytes) ETV
attr interpolationmode none
attr source packetReceivedFromUpper
attr title "packets received from higher layer, vector(packetBytes)"
vector 184 AODVgrayhole.host[9].wlan[0].mac.queue packetPushed:vector(packetBytes) ETV
attr interpolationmode none
attr title "packet pushed, vector(packetBytes)"
vector 185 AODVgrayhole.host[9].wlan[0].mac.queue queueLength:vector ETV
attr interpolationmode sample-hold
attr source "count(packetPushed) - count(packetPopped) - count(packetRemoved) - count(packetDropped)"
attr title "queue length, vector"
vector 186 AODVgrayhole.host[9].wlan[0].mac.queue packetPopped:vector(packetBytes) ETV
attr interpolationmode none
attr title "packet popped, vector(packetBytes)"
vector 187 AODVgrayhole.host[9].wlan[0].mac.queue queueingTime:vector ETV
attr interpolationmode none
attr source queueingTime(packetPopped)
attr title "queueing times, vector"
attr unit s
vector 188 AODVgrayhole.host[9].wlan[0].mac sentDownPk:vector(packetBytes) ETV
attr interpolationmode none
attr source packetSentToLower
attr title "packets sent to lower layer, vector(packetBytes)"
vector 189 AODVgrayhole.host[6].wlan[0].mac rcvdPkFromLl:vector(packetBytes) ETV
attr interpolationmode none
attr source packetReceivedFromLower
attr title "packets received from lower layer, vector(packetBytes)"
vector 190 AODVgrayhole.host[6].wlan[0].mac passedUpPk:vector(packetBytes) ETV
attr interpolationmode none
attr source packetSentToUpper
attr title "packets passed to higher layer, vector(packetBytes)"
vector 191 AODVgrayhole.host[6].udp packetReceived:vector(packetBytes) ETV
attr interpolationmode none
attr source packetReceived
attr title "packets received, vector(packetBytes)"
vector 192 AODVgrayhole.host[6].udp passedUpPk:vector(count) ETV
attr interpolationmode none
attr source packetSentToUpper
attr title "packets passed up, vector(count)"
vector 193 AODVgrayhole.host[3].wlan[0].mac rcvdPkFromLl:vector(packetBytes) ETV
attr interpolationmode none
attr source packetReceivedFromLower
attr title "packets received from lower layer, vector(packetBytes)"
vector 194 AODVgrayhole.host[3].wlan[0].mac passedUpPk:vector(packetBytes) ETV
attr interpolationmode none
attr source packetSentToUpper
attr title "packets passed to higher layer, vector(packetBytes)"
vector 195 AODVgrayhole.host[3].udp packetReceived:vector(packetBytes) ETV
attr interpolationmode none
attr source packetReceived
attr title "packets received, vector(packetBytes)"
vector 196 AODVgrayhole.host[3].udp passedUpPk:vector(count) ETV
attr interpolationmode none
attr source packetSentToUpper
attr title "packets passed up, vector(count)"
vector 197 AODVgrayhole.host[5].wlan[0].mac rcvdPkFromLl:vector(packetBytes) ETV
attr interpolationmode none
attr source packetReceivedFromLower
attr title "packets received from lower layer, vector(packetBytes)"
vector 198 AODVgrayhole.host[5].wlan[0].mac passedUpPk:vector(packetBytes) ETV
attr interpolationmode none
attr source packetSentToUpper
attr title "packets passed to higher layer, vector(packetBytes)"
vector 199 AODVgrayhole.host[5].udp packetReceived:vector(packetBytes) ETV
attr interpolationmode none
attr source packetReceived
attr title "packets received, vector(packetBytes)"
vector 200 AODVgrayhole.host[5].udp passedUpPk:vector(count) ETV
attr interpolationmode none
attr source packetSentToUpper
attr title "packets passed up, vector(count)"
vector 201 AODVgrayhole.host[16].udp packetSent:vector(packetBytes) ETV
attr interpolationmode none
attr source packetSent
attr title "packets sent, vector(packetBytes)"
vector 202 AODVgrayhole.host[16].wlan[0].mac rcvdPkFromHl:vector(packetBytes) ETV
attr interpolationmode none
attr source packetReceivedFromUpper
attr title "packets received from higher layer, vector(packetBytes)"
vector 203 AODVgrayhole.host[16].wlan[0].mac.queue packetPushed:vector(packetBytes) ETV
attr interpolationmode none
attr title "packet pushed, vector(packetBytes)"
vector 204 AODVgrayhole.host[16].wlan[0].mac.queue queueLength:vector ETV
attr interpolationmode sample-hold
attr source "count(packetPushed) - count(packetPopped) - count(packetRemoved) - count(packetDropped)"
attr title "queue length, vector"
vector 205 AODVgrayhole.host[16].wlan[0].mac.queue packetPopped:vector(packetBytes) ETV
attr interpolationmode none
attr title "packet popped, vector(packetBytes)"
vector 206 AODVgrayhole.host[16].wlan[0].mac.queue queueingTime:vector ETV
attr interpolationmode none
attr source queueingTime(packetPopped)
attr title "queueing times, vector"
attr unit s
vector 207 AODVgrayhole.host[16].wlan[0].mac sentDownPk:vector(packetBytes) ETV
attr interpolationmode none
attr source packetSentToLower
attr title "packets sent to lower layer, vector(packetBytes)"
vector 208 AODVgrayhole.host[13].wlan[0].mac rcvdPkFromLl:vector(packetBytes) ETV
attr interpolationmode none
attr source packetReceivedFromLower
attr title "packets received from lower layer, vector(packetBytes)"
vector 209 AODVgrayhole.host[13].wlan[0].mac passedUpPk:vector(packetBytes) ETV
attr interpolationmode none
attr source packetSentToUpper
attr title "packets passed to higher layer, vector(packetBytes)"
vector 210 AODVgrayhole.host[13].udp packetReceived:vector(packetBytes) ETV
attr interpolationmode none
attr source packetReceived
attr title "packets received, vector(packetBytes)"
vector 211 AODVgrayhole.host[13].udp passedUpPk:vector(count) ETV
attr interpolationmode none
attr source packetSentToUpper
attr title "packets passed up, vector(count)"
vector 212 AODVgrayhole.host[0].wlan[0].mac rcvdPkFromLl:vector(packetBytes) ETV
attr interpolationmode none
attr source packetReceivedFromLower
attr title "packets received from lower layer, vector(packetBytes)"
vector 213 AODVgrayhole.host[0].wlan[0].mac passedUpPk:vector(packetBytes) ETV
attr interpolationmode none
attr source packetSentToUpper
attr title "packets passed to higher layer, vector(packetBytes)"
vector 214 AODVgrayhole.host[0].udp packetReceived:vector(packetBytes) ETV
attr interpolationmode none
attr source packetReceived
attr title "packets received, vector(packetBytes)"
vector 215 AODVgrayhole.host[0].udp passedUpPk:vector(count) ETV
attr interpolationmode none
attr source packetSentToUpper
attr title "packets passed up, vector(count)"
vector 216 AODVgrayhole.host[6].udp packetSent:vector(packetBytes) ETV
attr interpolationmode none
attr source packetSent
attr title "packets sent, vector(packetBytes)"
vector 217 AODVgrayhole.host[6].wlan[0].mac rcvdPkFromHl:vector(packetBytes) ETV
attr interpolationmode none
attr source packetReceivedFromUpper
attr title "packets received from higher layer, vector(packetBytes)"
vector 218 AODVgrayhole.host[6].wlan[0].mac.queue packetPushed:vector(packetBytes) ETV
attr interpolationmode none
attr title "packet pushed, vector(packetBytes)"
vector 219 AODVgrayhole.host[6].wlan[0].mac.queue queueLength:vector ETV
attr interpolationmode sample-hold
attr source "count(packetPushed) - count(packetPopped) - count(packetRemoved) - count(packetDropped)"
attr title "queue length, vector"
vector 220 AODVgrayhole.host[6].wlan[0].mac.queue packetPopped:vector(packetBytes) ETV
attr interpolationmode none
attr title "packet popped, vector(packetBytes)"
vector 221 AODVgrayhole.host[6].wlan[0].mac.queue queueingTime:vector ETV
attr interpolationmode none
attr source queueingTime(packetPopped)
attr title "queueing times, vector"
attr unit s
vector 222 AODVgrayhole.host[6].wlan[0].mac sentDownPk:vector(packetBytes) ETV
attr interpolationmode none
attr source packetSentToLower
attr title "packets sent to lower layer, vector(packetBytes)"
vector 223 AODVgrayhole.host[4].udp packetSent:vector(packetBytes) ETV
attr interpolationmode none
attr source packetSent
attr title "packets sent, vector(packetBytes)"
vector 224 AODVgrayhole.host[4].wlan[0].mac rcvdPkFromHl:vector(packetBytes) ETV
attr interpolationmode none
attr source packetReceivedFromUpper
attr title "packets received from higher layer, vector(packetBytes)"
vector 225 AODVgrayhole.host[4].wlan[0].mac.queue packetPushed:vector(packetBytes) ETV
attr interpolationmode none
attr title "packet pushed, vector(packetBytes)"
vector 226 AODVgrayhole.host[4].wlan[0].mac.queue queueLength:vector ETV
attr interpolationmode sample-hold
attr source "count(packetPushed) - count(packetPopped) - count(packetRemoved) - count(packetDropped)"
attr title "queue length, vector"
vector 227 AODVgrayhole.host[4].wlan[0].mac.queue packetPopped:vector(packetBytes) ETV
attr interpolationmode none
attr title "packet popped, vector(packetBytes)"
vector 228 AODVgrayhole.host[4].wlan[0].mac.queue queueingTime:vector ETV
attr interpolationmode none
attr source queueingTime(packetPopped)
attr title "queueing times, vector"
attr unit s
vector 229 AODVgrayhole.host[4].wlan[0].mac sentDownPk:vector(packetBytes) ETV
attr interpolationmode none
attr source packetSentToLower
attr title "packets sent to lower layer, vector(packetBytes)"
vector 230 AODVgrayhole.host[0].udp packetSent:vector(packetBytes) ETV
attr interpolationmode none
attr source packetSent
attr title "packets sent, vector(packetBytes)"
vector 231 AODVgrayhole.host[0].wlan[0].mac rcvdPkFromHl:vector(packetBytes) ETV
attr interpolationmode none
attr source packetReceivedFromUpper
attr title "packets received from higher layer, vector(packetBytes)"
vector 232 AODVgrayhole.host[0].wlan[0].mac.queue packetPushed:vector(packetBytes) ETV
attr interpolationmode none
attr title "packet pushed, vector(packetBytes)"
vector 233 AODVgrayhole.host[0].wlan[0].mac.queue queueLength:vector ETV
attr interpolationmode sample-hold
attr source "count(packetPushed) - count(packetPopped) - count(packetRemoved) - count(packetDropped)"
attr title "queue length, vector"
vector 234 AODVgrayhole.host[0].wlan[0].mac.queue packetPopped:vector(packetBytes) ETV
attr interpolationmode none
attr title "packet popped, vector(packetBytes)"
vector 235 AODVgrayhole.host[0].wlan[0].mac.queue queueingTime:vector ETV
attr interpolationmode none
attr source queueingTime(packetPopped)
attr title "queueing times, vector"
attr unit s
vector 236 AODVgrayhole.host[0].wlan[0].mac sentDownPk:vector(packetBytes) ETV
attr interpolationmode none
attr source packetSentToLower
attr title "packets sent to lower layer, vector(packetBytes)"
vector 237 AODVgrayhole.host[15].udp packetSent:vector(packetBytes) ETV
attr interpolationmode none
attr source packetSent
attr title "packets sent, vector(packetBytes)"
vector 238 AODVgrayhole.host[15].wlan[0].mac rcvdPkFromHl:vector(packetBytes) ETV
attr interpolationmode none
attr source packetReceivedFromUpper
attr title "packets received from higher layer, vector(packetBytes)"
vector 239 AODVgrayhole.host[15].wlan[0].mac.queue packetPushed:vector(packetBytes) ETV
attr interpolationmode none
attr title "packet pushed, vector(packetBytes)"
vector 240 AODVgrayhole.host[15].wlan[0].mac.queue queueLength:vector ETV
attr interpolationmode sample-hold
attr source "count(packetPushed) - count(packetPopped) - count(packetRemoved) - count(packetDropped)"
attr title "queue length, vector"
vector 241 AODVgrayhole.host[15].wlan[0].mac.queue packetPopped:vector(packetBytes) ETV
attr interpolationmode none
attr title "packet popped, vector(packetBytes)"
vector 242 AODVgrayhole.host[15].wlan[0].mac.queue queueingTime:vector ETV
attr interpolationmode none
attr source queueingTime(packetPopped)
attr title "queueing times, vector"
attr unit s
vector 243 AODVgrayhole.host[15].wlan[0].mac sentDownPk:vector(packetBytes) ETV
attr interpolationmode none
attr source packetSentToLower
attr title "packets sent to lower layer, vector(packetBytes)"
vector 244 AODVgrayhole.host[13].udp packetSent:vector(packetBytes) ETV
attr interpolationmode none
attr source packetSent
attr title "packets sent, vector(packetBytes)"
vector 245 AODVgrayhole.host[13].wlan[0].mac rcvdPkFromHl:vector(packetBytes) ETV
attr interpolationmode none
attr source packetReceivedFromUpper
attr title "packets received from higher layer, vector(packetBytes)"
vector 246 AODVgrayhole.host[13].wlan[0].mac.queue packetPushed:vector(packetBytes) ETV
attr interpolationmode none
attr title "packet pushed, vector(packetBytes)"
vector 247 AODVgrayhole.host[13].wlan[0].mac.queue queueLength:vector ETV
attr interpolationmode sample-hold
attr source "count(packetPushed) - count(packetPopped) - count(packetRemoved) - count(packetDropped)"
attr title "queue length, vector"
vector 248 AODVgrayhole.host[13].wlan[0].mac.queue packetPopped:vector(packetBytes) ETV
attr interpolationmode none
attr title "packet popped, vector(packetBytes)"
vector 249 AODVgrayhole.host[13].wlan[0].mac.queue queueingTime:vector ETV
attr interpolationmode none
attr source queueingTime(packetPopped)
attr title "queueing times, vector"
attr unit s
vector 250 AODVgrayhole.host[13].wlan[0].mac sentDownPk:vector(packetBytes) ETV
attr interpolationmode none
attr source packetSentToLower
attr title "packets sent to lower layer, vector(packetBytes)"
vector 251 AODVgrayhole.receiver.wlan[0].mac rcvdPkFromLl:vector(packetBytes) ETV
attr interpolationmode none
attr source packetReceivedFromLower
attr title "packets received from lower layer, vector(packetBytes)"
vector 252 AODVgrayhole.receiver.wlan[0].mac passedUpPk:vector(packetBytes) ETV
attr interpolationmode none
attr source packetSentToUpper
attr title "packets passed to higher layer, vector(packetBytes)"
vector 253 AODVgrayhole.receiver.udp packetReceived:vector(packetBytes) ETV
attr interpolationmode none
attr source packetReceived
attr title "packets received, vector(packetBytes)"
vector 254 AODVgrayhole.receiver.udp passedUpPk:vector(count) ETV
attr interpolationmode none
attr source packetSentToUpper
attr title "packets passed up, vector(count)"
vector 255 AODVgrayhole.receiver.udp packetSent:vector(packetBytes) ETV
attr interpolationmode none
attr source packetSent
attr title "packets sent, vector(packetBytes)"
vector 256 AODVgrayhole.receiver.ipv4.arp arpRequestSent:vector(packetBytes) ETV
attr source arpRequestSent
attr title "ARP request sent, vector(packetBytes)"
vector 257 AODVgrayhole.receiver.wlan[0].mac rcvdPkFromHl:vector(packetBytes) ETV
attr interpolationmode none
attr source packetReceivedFromUpper
attr title "packets received from higher layer, vector(packetBytes)"
vector 258 AODVgrayhole.receiver.wlan[0].mac.queue packetPushed:vector(packetBytes) ETV
attr interpolationmode none
attr title "packet pushed, vector(packetBytes)"
vector 259 AODVgrayhole.receiver.wlan[0].mac.queue queueLength:vector ETV
attr interpolationmode sample-hold
attr source "count(packetPushed) - count(packetPopped) - count(packetRemoved) - count(packetDropped)"
attr title "queue length, vector"
vector 260 AODVgrayhole.receiver.wlan[0].mac.queue packetPopped:vector(packetBytes) ETV
attr interpolationmode none
attr title "packet popped, vector(packetBytes)"
vector 261 AODVgrayhole.receiver.wlan[0].mac.queue queueingTime:vector ETV
attr interpolationmode none
attr source queueingTime(packetPopped)
attr title "queueing times, vector"
attr unit s
vector 262 AODVgrayhole.receiver.wlan[0].mac sentDownPk:vector(packetBytes) ETV
attr interpolationmode none
attr source packetSentToLower
attr title "packets sent to lower layer, vector(packetBytes)"
vector 263 AODVgrayhole.host[3].udp packetSent:vector(packetBytes) ETV
attr interpolationmode none
attr source packetSent
attr title "packets sent, vector(packetBytes)"
vector 264 AODVgrayhole.host[3].wlan[0].mac rcvdPkFromHl:vector(packetBytes) ETV
attr interpolationmode none
attr source packetReceivedFromUpper
attr title "packets received from higher layer, vector(packetBytes)"
vector 265 AODVgrayhole.host[3].wlan[0].mac.queue packetPushed:vector(packetBytes) ETV
attr interpolationmode none
attr title "packet pushed, vector(packetBytes)"
vector 266 AODVgrayhole.host[3].wlan[0].mac.queue queueLength:vector ETV
attr interpolationmode sample-hold
attr source "count(packetPushed) - count(packetPopped) - count(packetRemoved) - count(packetDropped)"
attr title "queue length, vector"
vector 267 AODVgrayhole.host[3].wlan[0].mac.queue packetPopped:vector(packetBytes) ETV
attr interpolationmode none
attr title "packet popped, vector(packetBytes)"
vector 268 AODVgrayhole.host[3].wlan[0].mac.queue queueingTime:vector ETV
attr interpolationmode none
attr source queueingTime(packetPopped)
attr title "queueing times, vector"
attr unit s
vector 269 AODVgrayhole.host[3].wlan[0].mac sentDownPk:vector(packetBytes) ETV
attr interpolationmode none
attr source packetSentToLower
attr title "packets sent to lower layer, vector(packetBytes)"
vector 270 AODVgrayhole.host[5].udp packetSent:vector(packetBytes) ETV
attr interpolationmode none
attr source packetSent
attr title "packets sent, vector(packetBytes)"
vector 271 AODVgrayhole.host[5].wlan[0].mac rcvdPkFromHl:vector(packetBytes) ETV
attr interpolationmode none
attr source packetReceivedFromUpper
attr title "packets received from higher layer, vector(packetBytes)"
vector 272 AODVgrayhole.host[5].wlan[0].mac.queue packetPushed:vector(packetBytes) ETV
attr interpolationmode none
attr title "packet pushed, vector(packetBytes)"
vector 273 AODVgrayhole.host[5].wlan[0].mac.queue queueLength:vector ETV
attr interpolationmode sample-hold
attr source "count(packetPushed) - count(packetPopped) - count(packetRemoved) - count(packetDropped)"
attr title "queue length, vector"
vector 274 AODVgrayhole.host[5].wlan[0].mac.queue packetPopped:vector(packetBytes) ETV
attr interpolationmode none
attr title "packet popped, vector(packetBytes)"
vector 275 AODVgrayhole.host[5].wlan[0].mac.queue queueingTime:vector ETV
attr interpolationmode none
attr source queueingTime(packetPopped)
attr title "queueing times, vector"
attr unit s
vector 276 AODVgrayhole.host[5].wlan[0].mac sentDownPk:vector(packetBytes) ETV
attr interpolationmode none
attr source packetSentToLower
attr title "packets sent to lower layer, vector(packetBytes)"
vector 277 AODVgrayhole.host[14].wlan[0].mac rcvdPkFromLl:vector(packetBytes) ETV
attr interpolationmode none
attr source packetReceivedFromLower
attr title "packets received from lower layer, vector(packetBytes)"
vector 278 AODVgrayhole.host[14].wlan[0].mac passedUpPk:vector(packetBytes) ETV
attr interpolationmode none
attr source packetSentToUpper
attr title "packets passed to higher layer, vector(packetBytes)"
vector 279 AODVgrayhole.host[14].udp packetReceived:vector(packetBytes) ETV
attr interpolationmode none
attr source packetReceived
attr title "packets received, vector(packetBytes)"
vector 280 AODVgrayhole.host[14].udp passedUpPk:vector(count) ETV
attr interpolationmode none
attr source packetSentToUpper
attr title "packets passed up, vector(count)"
vector 281 AODVgrayhole.host[3].ipv4.arp arpReplySent:vector(packetBytes) ETV
attr source arpReplySent
attr title "ARP replies sent, vector(packetBytes)"
vector 282 AODVgrayhole.host[13].wlan[0].mac packetDropNotAddressedToUs:vector(packetBytes) ETV
attr interpolationmode none
attr source packetDropReasonIsNotAddressedToUs(packetDropped)
attr title "packet drop: not addressed to us, vector(packetBytes)"
vector 283 AODVgrayhole.host[0].wlan[0].mac packetDropNotAddressedToUs:vector(packetBytes) ETV
attr interpolationmode none
attr source packetDropReasonIsNotAddressedToUs(packetDropped)
attr title "packet drop: not addressed to us, vector(packetBytes)"
vector 284 AODVgrayhole.host[5].wlan[0].mac packetDropNotAddressedToUs:vector(packetBytes) ETV
attr interpolationmode none
attr source packetDropReasonIsNotAddressedToUs(packetDropped)
attr title "packet drop: not addressed to us, vector(packetBytes)"
vector 285 AODVgrayhole.host[15].wlan[0].mac packetDropNotAddressedToUs:vector(packetBytes) ETV
attr interpolationmode none
attr source packetDropReasonIsNotAddressedToUs(packetDropped)
attr title "packet drop: not addressed to us, vector(packetBytes)"
vector 286 AODVgrayhole.host[3].ipv4.arp arpRequestSent:vector(packetBytes) ETV
attr source arpRequestSent
attr title "ARP request sent, vector(packetBytes)"
vector 287 AODVgrayhole.host[9].ipv4.arp arpReplySent:vector(packetBytes) ETV
attr source arpReplySent
attr title "ARP replies sent, vector(packetBytes)"
vector 288 AODVgrayhole.host[16].wlan[0].mac packetDropNotAddressedToUs:vector(packetBytes) ETV
attr interpolationmode none
attr source packetDropReasonIsNotAddressedToUs(packetDropped)
attr title "packet drop: not addressed to us, vector(packetBytes)"
vector 289 AODVgrayhole.host[7].wlan[0].mac packetDropNotAddressedToUs:vector(packetBytes) ETV
attr interpolationmode none
attr source packetDropReasonIsNotAddressedToUs(packetDropped)
attr title "packet drop: not addressed to us, vector(packetBytes)"
vector 290 AODVgrayhole.host[2].wlan[0].mac packetDropNotAddressedToUs:vector(packetBytes) ETV
attr interpolationmode none
attr source packetDropReasonIsNotAddressedToUs(packetDropped)
attr title "packet drop: not addressed to us, vector(packetBytes)"
vector 291 AODVgrayhole.host[1].wlan[0].mac packetDropNotAddressedToUs:vector(packetBytes) ETV
attr interpolationmode none
attr source packetDropReasonIsNotAddressedToUs(packetDropped)
attr title "packet drop: not addressed to us, vector(packetBytes)"
vector 292 AODVgrayhole.ntu_Grayholer.wlan[0].mac packetDropNotAddressedToUs:vector(packetBytes) ETV
attr interpolationmode none
attr source packetDropReasonIsNotAddressedToUs(packetDropped)
attr title "packet drop: not addressed to us, vector(packetBytes)"
vector 293 AODVgrayhole.host[11].wlan[0].mac packetDropNotAddressedToUs:vector(packetBytes) ETV
attr interpolationmode none
attr source packetDropReasonIsNotAddressedToUs(packetDropped)
attr title "packet drop: not addressed to us, vector(packetBytes)"
vector 294 AODVgrayhole.host[4].wlan[0].mac packetDropNotAddressedToUs:vector(packetBytes) ETV
attr interpolationmode none
attr source packetDropReasonIsNotAddressedToUs(packetDropped)
attr title "packet drop: not addressed to us, vector(packetBytes)"
vector 295 AODVgrayhole.host[12].wlan[0].mac packetDropNotAddressedToUs:vector(packetBytes) ETV
attr interpolationmode none
attr source packetDropReasonIsNotAddressedToUs(packetDropped)
attr title "packet drop: not addressed to us, vector(packetBytes)"
vector 296 AODVgrayhole.host[14].udp packetSent:vector(packetBytes) ETV
attr interpolationmode none
attr source packetSent
attr title "packets sent, vector(packetBytes)"
vector 297 AODVgrayhole.host[14].wlan[0].mac rcvdPkFromHl:vector(packetBytes) ETV
attr interpolationmode none
attr source packetReceivedFromUpper
attr title "packets received from higher layer, vector(packetBytes)"
vector 298 AODVgrayhole.host[14].wlan[0].mac.queue packetPushed:vector(packetBytes) ETV
attr interpolationmode none
attr title "packet pushed, vector(packetBytes)"
vector 299 AODVgrayhole.host[14].wlan[0].mac.queue queueLength:vector ETV
attr interpolationmode sample-hold
attr source "count(packetPushed) - count(packetPopped) - count(packetRemoved) - count(packetDropped)"
attr title "queue length, vector"
vector 300 AODVgrayhole.host[14].wlan[0].mac.queue packetPopped:vector(packetBytes) ETV
attr interpolationmode none
attr title "packet popped, vector(packetBytes)"
vector 301 AODVgrayhole.host[14].wlan[0].mac.queue queueingTime:vector ETV
attr interpolationmode none
attr source queueingTime(packetPopped)
attr title "queueing times, vector"
attr unit s
vector 302 AODVgrayhole.host[14].wlan[0].mac sentDownPk:vector(packetBytes) ETV
attr interpolationmode none
attr source packetSentToLower
attr title "packets sent to lower layer, vector(packetBytes)"
vector 303 AODVgrayhole.host[7].ipv4.arp arpReplySent:vector(packetBytes) ETV
attr source arpReplySent
attr title "ARP replies sent, vector(packetBytes)"
vector 304 AODVgrayhole.host[9].wlan[0].mac packetDropNotAddressedToUs:vector(packetBytes) ETV
attr interpolationmode none
attr source packetDropReasonIsNotAddressedToUs(packetDropped)
attr title "packet drop: not addressed to us, vector(packetBytes)"
vector 305 AODVgrayhole.host[10].wlan[0].mac packetDropNotAddressedToUs:vector(packetBytes) ETV
attr interpolationmode none
attr source packetDropReasonIsNotAddressedToUs(packetDropped)
attr title "packet drop: not addressed to us, vector(packetBytes)"
vector 306 AODVgrayhole.host[8].wlan[0].mac packetDropNotAddressedToUs:vector(packetBytes) ETV
attr interpolationmode none
attr source packetDropReasonIsNotAddressedToUs(packetDropped)
attr title "packet drop: not addressed to us, vector(packetBytes)"
vector 307 AODVgrayhole.sender.wlan[0].mac packetDropNotAddressedToUs:vector(packetBytes) ETV
attr interpolationmode none
attr source packetDropReasonIsNotAddressedToUs(packetDropped)
attr title "packet drop: not addressed to us, vector(packetBytes)"
vector 308 AODVgrayhole.host[17].wlan[0].mac packetDropNotAddressedToUs:vector(packetBytes) ETV
attr interpolationmode none
attr source packetDropReasonIsNotAddressedToUs(packetDropped)
attr title "packet drop: not addressed to us, vector(packetBytes)"
vector 309 AODVgrayhole.host[7].ipv4.arp arpRequestSent:vector(packetBytes) ETV
attr source arpRequestSent
attr title "ARP request sent, vector(packetBytes)"
vector 310 AODVgrayhole.sender.ipv4.arp arpReplySent:vector(packetBytes) ETV
attr source arpReplySent
attr title "ARP replies sent, vector(packetBytes)"
vector 311 AODVgrayhole.ntu_Grayholer.ipv4.ip rcvdPkt:vector ETV
attr interpolationmode none
attr title "Number of packet received, vector"
vector 312 AODVgrayhole.host[17].udp packetReceived:vector(packetBytes) ETV
attr interpolationmode none
attr source packetReceived
attr title "packets received, vector(packetBytes)"
vector 313 AODVgrayhole.host[17].udp passedUpPk:vector(count) ETV
attr interpolationmode none
attr source packetSentToUpper
attr title "packets passed up, vector(count)"
vector 314 AODVgrayhole.host[17].udp packetSent:vector(packetBytes) ETV
attr interpolationmode none
attr source packetSent
attr title "packets sent, vector(packetBytes)"
vector 315 AODVgrayhole.host[17].wlan[0].mac rcvdPkFromHl:vector(packetBytes) ETV
attr interpolationmode none
attr source packetReceivedFromUpper
attr title "packets received from higher layer, vector(packetBytes)"
vector 316 AODVgrayhole.host[17].wlan[0].mac.queue packetPushed:vector(packetBytes) ETV
attr interpolationmode none
attr title "packet pushed, vector(packetBytes)"
vector 317 AODVgrayhole.host[17].wlan[0].mac.queue queueLength:vector ETV
attr interpolationmode sample-hold
attr source "count(packetPushed) - count(packetPopped) - count(packetRemoved) - count(packetDropped)"
attr title "queue length, vector"
vector 318 AODVgrayhole.host[17].wlan[0].mac.queue packetPopped:vector(packetBytes) ETV
attr interpolationmode none
attr title "packet popped, vector(packetBytes)"
vector 319 AODVgrayhole.host[17].wlan[0].mac.queue queueingTime:vector ETV
attr interpolationmode none
attr source queueingTime(packetPopped)
attr title "queueing times, vector"
attr unit s
vector 320 AODVgrayhole.host[17].wlan[0].mac sentDownPk:vector(packetBytes) ETV
attr interpolationmode none
attr source packetSentToLower
attr title "packets sent to lower layer, vector(packetBytes)"
vector 321 AODVgrayhole.sender.ipv4.arp arpRequestSent:vector(packetBytes) ETV
attr source arpRequestSent
attr title "ARP request sent, vector(packetBytes)"
vector 322 AODVgrayhole.host[2].ipv4.arp arpReplySent:vector(packetBytes) ETV
attr source arpReplySent
attr title "ARP replies sent, vector(packetBytes)"
vector 323 AODVgrayhole.host[0].ipv4.arp arpReplySent:vector(packetBytes) ETV
attr source arpReplySent
attr title "ARP replies sent, vector(packetBytes)"
vector 324 AODVgrayhole.host[3].wlan[0].mac packetDropNotAddressedToUs:vector(packetBytes) ETV
attr interpolationmode none
attr source packetDropReasonIsNotAddressedToUs(packetDropped)
attr title "packet drop: not addressed to us, vector(packetBytes)"
vector 325 AODVgrayhole.host[6].wlan[0].mac packetDropNotAddressedToUs:vector(packetBytes) ETV
attr interpolationmode none
attr source packetDropReasonIsNotAddressedToUs(packetDropped)
attr title "packet drop: not addressed to us, vector(packetBytes)"
vector 326 AODVgrayhole.host[0].ipv4.arp arpRequestSent:vector(packetBytes) ETV
attr source arpRequestSent
attr title "ARP request sent, vector(packetBytes)"
vector 327 AODVgrayhole.receiver.wlan[0].mac packetDropNotAddressedToUs:vector(packetBytes) ETV
attr interpolationmode none
attr source packetDropReasonIsNotAddressedToUs(packetDropped)
attr title "packet drop: not addressed to us, vector(packetBytes)"
vector 328 AODVgrayhole.host[5].ipv4.arp arpReplySent:vector(packetBytes) ETV
attr source arpReplySent
attr title "ARP replies sent, vector(packetBytes)"
vector 329 AODVgrayhole.host[14].wlan[0].mac packetDropNotAddressedToUs:vector(packetBytes) ETV
attr interpolationmode none
attr source packetDropReasonIsNotAddressedToUs(packetDropped)
attr title "packet drop: not addressed to us, vector(packetBytes)"
vector 330 AODVgrayhole.ntu_Grayholer.ipv4.ip droppings:vector ETV
attr interpolationmode none
attr title "Number of drops, vector"
vector 331 AODVgrayhole.host[9].ipv4.arp arpRequestSent:vector(packetBytes) ETV
attr source arpRequestSent
attr title "ARP request sent, vector(packetBytes)"
vector 332 AODVgrayhole.ntu_Grayholer.ipv4.arp arpReplySent:vector(packetBytes) ETV
attr source arpReplySent
attr title "ARP replies sent, vector(packetBytes)"
vector 333 AODVgrayhole.host[15].ipv4.arp arpReplySent:vector(packetBytes) ETV
attr source arpReplySent
attr title "ARP replies sent, vector(packetBytes)"
vector 334 AODVgrayhole.host[15].ipv4.arp arpRequestSent:vector(packetBytes) ETV
attr source arpRequestSent
attr title "ARP request sent, vector(packetBytes)"
vector 335 AODVgrayhole.host[5].ipv4.arp arpRequestSent:vector(packetBytes) ETV
attr source arpRequestSent
attr title "ARP request sent, vector(packetBytes)"
vector 336 AODVgrayhole.host[11].ipv4.arp arpReplySent:vector(packetBytes) ETV
attr source arpReplySent
attr title "ARP replies sent, vector(packetBytes)"
vector 337 AODVgrayhole.host[11].ipv4.arp arpRequestSent:vector(packetBytes) ETV
attr source arpRequestSent
attr title "ARP request sent, vector(packetBytes)"
vector 338 AODVgrayhole.host[16].ipv4.arp arpReplySent:vector(packetBytes) ETV
attr source arpReplySent
attr title "ARP replies sent, vector(packetBytes)"
vector 339 AODVgrayhole.host[16].ipv4.arp arpRequestSent:vector(packetBytes) ETV
attr source arpRequestSent
attr title "ARP request sent, vector(packetBytes)"
vector 340 AODVgrayhole.receiver.app[0] packetReceived:vector(packetBytes) ETV
attr interpolationmode none
attr source packetReceived
attr title "packets received, vector(packetBytes)"
vector 341 AODVgrayhole.receiver.app[0] throughput:vector ETV
attr source throughput(packetReceived)
attr title "throughput, vector"
attr unit bps
vector 342 AODVgrayhole.receiver.app[0] endToEndDelay:vector ETV
attr interpolationmode none
attr source dataAge(packetReceived)
attr title "end-to-end delay, vector"
attr unit s
vector 343 AODVgrayhole.receiver.app[0] rcvdPkSeqNo:vector ETV
attr interpolationmode none
attr source appPkSeqNo(packetReceived)
attr title "received packet sequence number, vector"
vector 344 AODVgrayhole.host[1].ipv4.arp arpReplySent:vector(packetBytes) ETV
attr source arpReplySent
attr title "ARP replies sent, vector(packetBytes)"
vector 345 AODVgrayhole.host[1].ipv4.arp arpRequestSent:vector(packetBytes) ETV
attr source arpRequestSent
attr title "ARP request sent, vector(packetBytes)"
vector 346 AODVgrayhole.host[1].ipv4.ip packetDropAddressResolutionFailed:vector(packetBytes) ETV
attr interpolationmode none
attr source packetDropReasonIsAddressResolutionFailed(packetDropped)
attr title "packet drop: address resolution failed, vector(packetBytes)"
vector 347 AODVgrayhole.host[16].ipv4.ip packetDropAddressResolutionFailed:vector(packetBytes) ETV
attr interpolationmode none
attr source packetDropReasonIsAddressResolutionFailed(packetDropped)
attr title "packet drop: address resolution failed, vector(packetBytes)"
0	0	0	0
0	0	0	0
0	0	0	4
1	0	0	0
1	0	0	0
1	0	0	4
2	0	0	0
2	0	0	0
2	0	0	4
3	0	0	0
3	0	0	0
3	0	0	4
4	0	0	0
4	0	0	0
4	0	0	4
5	0	0	0
5	0	0	0
5	0	0	4
6	0	0	0
6	0	0	0
6	0	0	4
7	0	0	0
7	0	0	0
7	0	0	4
8	0	0	0
8	0	0	0
8	0	0	4
9	0	0	0
9	0	0	0
9	0	0	4
10	0	0	0
10	0	0	0
10	0	0	4
11	0	0	0
11	0	0	0
11	0	0	4
12	0	0	0
12	0	0	0
12	0	0	4
13	0	0	0
13	0	0	0
13	0	0	4
14	0	0	0
14	0	0	0
14	0	0	4
15	0	0	0
15	0	0	0
15	0	0	4
16	0	0	0
16	0	0	0
16	0	0	4
17	0	0	0
17	0	0	0
17	0	0	4
18	0	0	0
18	0	0	0
18	0	0	4
19	0	0	0
19	0	0	0
19	0	0	4
20	0	0	0
20	0	0	0
20	0	0	4
21	0	0	1
21	1219	0.32877359286	3
21	1268	0.32912159286	1
21	1305	0.331080408718	3
21	1363	0.331428408718	1
21	1481	0.331674634994	3
21	1620	0.332022634994	2
21	1662	0.332123035889	1
21	1689	0.332650740976	3
21	1743	0.332998740976	2
21	1794	0.33310127489	1
21	2265	0.805379079041	3
21	2319	0.805727079041	1
21	2364	0.805728351521	3
21	2417	0.805980351521	2
21	2428	0.805980636939	3
21	2514	0.806232636939	1
21	2538	0.806233909419	3
21	2564	0.806565909419	1
21	2859	0.808568076289	3
21	2917	0.808916076289	2
21	2957	0.808934235037	3
21	3046	0.809186235037	2
21	3111	0.809375701329	1
21	3167	0.810077516165	3
21	3188	0.810425516165	1
21	4038	1.019813745969	3
21	4130	1.020161745969	2
21	4136	1.020161867061	3
21	4196	1.020413867061	1
21	4910	1.331871035889	3
21	4935	1.332123035889	1
21	5040	1.332376593061	3
21	5094	1.332708593061	1
21	5218	1.335570404812	3
21	5266	1.335822404812	1
21	5517	1.338365190406	3
21	5575	1.338713190406	1
21	5624	1.338714154821	3
21	5713	1.338966154821	1
21	5722	1.338966345268	3
21	5798	1.339218345268	2
21	5894	1.339353645102	3
21	5975	1.339701645102	1
21	6030	1.340333895724	3
21	6153	1.340681895724	1
21	6407	1.34214203702	3
21	6528	1.34249003702	1
21	7034	1.808934235037	3
21	7059	1.809186235037	1
21	7147	1.809439839501	3
21	7174	1.809771839501	1
21	7195	1.809772641733	3
21	7227	1.810104641733	1
21	7248	1.810105443965	3
21	7280	1.810437443965	1
21	8215	2.020161867061	3
21	8240	2.020413867061	1
21	8276	2.020414947271	3
21	8317	2.020666947271	1
21	8320	2.020667068363	3
21	8352	2.020999068363	1
21	8394	2.021301275905	3
21	8443	2.021553275905	1
21	8512	2.021805712341	3
21	8550	2.022137712341	1
21	8635	2.338714154821	3
21	8662	2.338966154821	1
21	8675	2.338966716926	3
21	8713	2.339218716926	1
21	8735	2.339219681341	3
21	8765	2.339551681341	1
21	8794	2.342886077002	3
21	8823	2.343138077002	1
21	8910	2.343391727612	3
21	8936	2.343723727612	1
21	11880	16.007227493045	3
21	11966	16.007575493045	1
21	12013	16.008380302354	3
21	12062	16.008728302354	1
21	15459	23.007348774741	3
21	15557	23.007696774741	1
21	15716	23.008994956555	3
21	15757	23.009342956555	1
21	18825	30.007056687566	3
21	18866	30.007404687566	1
21	18930	30.008845429576	3
21	19016	30.009193429576	1
21	19270	30.009938932784	3
21	19462	30.010286932784	1
21	19971	30.014060091437	3
21	20032	30.014408091437	1
21	20478	30.332683598194	3
21	20593	30.333031598194	1
21	20736	30.333284646804	3
21	20772	30.333536646804	1
21	20932	30.334320683253	3
21	21034	30.334668683253	2
21	21068	30.334828563519	1
21	21120	30.33501217897	3
21	21256	30.33536017897	1
21	21352	30.335893346318	3
21	21439	30.336241346318	2
21	21554	30.336574233667	1
21	21618	30.337511911232	3
21	21672	30.337859911232	1
21	21770	30.33863344046	3
21	21813	30.33888544046	1
21	21889	30.339138804674	3
21	21927	30.339470804674	1
21	22053	30.341772168888	3
21	22094	30.344072168888	1
21	22131	30.436742552179	3
21	22160	30.437106552179	1
21	23477	31.327468893989	3
21	23563	31.327816893989	2
21	23589	31.327980571517	1
21	23634	31.328427071216	3
21	23737	31.328775071216	2
21	23778	31.328776343696	3
21	23883	31.329108343696	1
21	23967	31.329218758723	3
21	24029	31.329566758723	1
21	24068	31.33259734226	3
21	24089	31.33294534226	1
21	24234	31.430750690157	3
21	24263	31.431114690157	1
21	24467	31.804353350189	3
21	24580	31.804701350189	1
21	24693	31.804830770379	3
21	24820	31.805178770379	1
21	24896	31.805378750604	3
21	25018	31.805726750604	1
21	25259	31.806845314774	3
21	25313	31.807193314774	2
21	25358	31.8074046358	1
21	25371	31.807404921218	3
21	25409	31.807736921218	1
21	25437	31.807738193698	3
21	25488	31.808070193698	2
21	25515	31.808139516709	1
21	25576	31.808532348549	3
21	25668	31.808864348549	1
21	25698	31.809094099762	3
21	25788	31.809442099762	1
21	26022	31.811555427482	3
21	26121	31.811903427482	2
21	26157	31.811994072537	1
21	26638	31.817715377397	3
21	26755	31.818063377397	1
21	26968	31.820360208613	3
21	27029	31.820708208613	1
21	27311	31.825558156672	3
21	27361	31.825906156672	1
21	27550	31.827349397535	3
21	27611	31.827697397535	1
21	27646	31.909033482982	3
21	27675	31.909429482982	1
21	28104	32.143934380564	3
21	28241	32.144282380564	2
21	28279	32.144283344979	3
21	28429	32.144615344979	1
21	28461	32.144826167965	3
21	28510	32.145174167965	1
21	29102	32.148318975663	3
21	29185	32.148666975663	1
21	29262	32.244983207895	3
21	29291	32.245347207895	1
21	29404	32.621060839205	3
21	29490	32.621408839205	1
21	29550	32.621662268386	3
21	29612	32.622010268386	1
21	29650	32.622011232801	3
21	29758	32.622343232801	1
21	29874	32.623236349775	3
21	29945	32.623584349775	2
21	30075	32.623857337135	1
21	30195	32.624381969363	3
21	30244	32.624729969363	1
21	30464	32.625993747715	3
21	30627	32.626245747715	1
21	31074	33.262250853675	3
21	31123	33.262598853675	1
21	31161	33.262691847079	3
21	31223	33.263039847079	1
21	31261	33.263040811494	3
21	31365	33.263372811494	2
21	31417	33.263496372477	3
21	31574	33.263844372477	2
21	31612	33.263946871907	1
21	31890	33.26656735957	3
21	31956	33.26691535957	1
21	32383	33.366959032734	3
21	32412	33.367323032734	1
21	32446	33.625993747715	3
21	32475	33.626245747715	1
21	32508	33.626246610698	3
21	32547	33.626498610698	1
21	32560	33.626499099315	3
21	32587	33.626831099315	1
21	32626	33.62765543308	3
21	32663	33.62798743308	1
21	32739	33.63028848169	3
21	32803	33.63258848169	1
21	32838	33.632589005995	3
21	32904	33.634889005995	1
21	32939	33.6348895303	3
21	33006	33.6371895303	1
21	33035	33.637190054605	3
21	33074	33.639490054605	1
21	33144	33.641791103215	3
21	33181	33.644091103215	1
21	33252	33.646392151825	3
21	33287	33.648692151825	1
21	33491	34.006902569573	3
21	33525	34.009202569573	1
21	33736	35.006902569573	3
21	33772	35.009202569573	1
21	33841	35.011503618183	3
21	33878	35.013803618183	1
21	33948	35.016104666793	3
21	33985	35.018404666793	1
21	34055	35.020705715403	3
21	34092	35.023005715403	1
21	34162	35.025306764013	3
21	34199	35.027606764013	1
21	34269	35.029907812623	3
21	34306	35.032207812623	1
21	34376	35.034508861233	3
21	34411	35.036808861233	1
21	35194	39.009750437232	3
21	35263	39.010098437232	1
21	35419	39.010431485842	3
21	35856	39.012731485842	2
21	35875	39.012898820626	1
21	35901	39.01350164932	3
21	35963	39.01384964932	2
21	36015	39.014144299815	1
21	36048	39.014949741748	3
21	36077	39.015297741748	1
21	36139	39.112910223361	3
21	36168	39.113274223361	1
21	36450	40.006902569573	3
21	36486	40.009202569573	1
21	36613	40.011503618183	3
21	36650	40.013803618183	1
21	36720	40.016104666793	3
21	36755	40.018404666793	1
21	36975	41.010351623444	3
21	37011	41.010603623444	1
21	37821	44.010378874738	3
21	37899	44.010726874738	1
21	44735	66.011575464682	3
21	44784	66.011923464682	1
21	45058	66.013307748904	3
21	45119	66.013655748904	1
21	47483	72.008929460664	3
21	47582	72.009277460664	1
21	47608	72.009621531328	3
21	47699	72.009969531328	1
21	55907	91.012267582508	3
21	55978	91.012615582508	1
21	56025	91.013073191785	3
21	56066	91.013421191785	1
21	57436	96.007470394441	3
21	57481	96.007818394441	1
21	57765	96.010304487683	3
21	57865	96.010652487683	1
21	59405	97.015416533748	3
21	59564	97.015764533748	1
21	59864	97.018014212555	3
21	59914	97.018362212555	1
21	61288	98.325819890657	3
21	61475	98.326167890657	2
21	61505	98.326168855072	3
21	61639	98.326500855072	2
21	61663	98.326548084954	1
21	61798	98.328502379443	3
21	61876	98.328850379443	1
21	61940	98.427676848241	3
21	61994	98.428040848241	1
21	62665	98.807660488719	3
21	62780	98.808008488719	2
21	62808	98.808090129278	3
21	62887	98.808438129278	1
21	62932	98.808440391005	3
21	62982	98.808788391005	1
21	63126	98.809731400242	3
21	63216	98.810079400242	1
21	63252	98.811318693653	3
21	63310	98.811666693653	1
21	63409	98.811739601066	3
21	63495	98.812087601066	1
21	63512	98.812088163171	3
21	63582	98.812420163171	1
21	63605	98.812421127586	3
21	63635	98.812753127586	1
21	63661	98.813120624098	3
21	63682	98.813468624098	1
21	63818	98.816160485358	3
21	63997	98.816492485358	2
21	64023	98.816672263068	1
21	64754	99.00828496855	3
21	64828	99.00863296855	1
21	65053	99.011759847243	3
21	65114	99.012107847243	1
21	65552	99.334160579972	3
21	65688	99.334508579972	2
21	65729	99.334509852452	3
21	65909	99.334841852452	2
21	65994	99.334954559858	1
21	66113	99.335146195564	3
21	66183	99.335494195564	1
21	66227	99.33577293507	3
21	66288	99.33612093507	1
21	66455	99.337736432047	3
21	66476	99.338084432047	1
21	66619	99.438428092291	3
21	66648	99.438792092291	1
21	66758	99.810122415329	3
21	66832	99.810470415329	1
21	66903	99.81111473555	3
21	66974	99.81146273555	1
21	67115	99.811858780234	3
21	67252	99.812206780234	2
21	67344	99.81230125453	1
21	67361	99.81239985928	3
21	67523	99.81274785928	1
21	67540	99.812748144698	3
21	67623	99.813080144698	1
21	67648	99.813081417178	3
21	67724	99.813413417178	2
21	67805	99.813557210134	1
21	67840	99.813717797949	3
21	67894	99.814065797949	2
21	67944	99.814225413494	1
21	68294	99.81796642619	3
21	68319	99.81821842619	1
21	68349	99.818219281716	3
21	68391	99.818471281716	1
21	68395	99.818471349178	3
21	68431	99.818803349178	1
21	68485	99.823214411779	3
21	68521	99.823466411779	1
21	68601	99.823719827899	3
21	68631	99.824051827899	1
21	68714	99.826353244019	3
21	68752	99.826605244019	1
21	68825	99.826858602193	3
21	68864	99.829158602193	1
21	69369	101.009203256294	3
21	69399	101.011503256294	1
21	70051	103.009203256294	3
21	70081	103.011503256294	1
21	70399	104.009203256294	3
21	70430	104.011503256294	1
21	70757	105.009203256294	3
21	70787	105.011503256294	1
21	71310	107.009203256294	3
21	71340	107.011503256294	1
21	71660	108.009203256294	3
21	71691	108.011503256294	1
21	72407	111.00879268711	3
21	72437	111.00912468711	1
21	72496	111.009956916255	3
21	72541	111.010304916255	1
21	72866	111.014381024046	3
21	72921	111.014729024046	1
21	73043	111.014981725686	3
21	73122	111.015233725686	1
21	73365	111.017015525749	3
21	73402	111.017363525749	1
21	73440	111.017364490164	3
21	73520	111.017696490164	2
21	73572	111.017866148006	1
21	73701	111.018485213624	3
21	73731	111.018737213624	1
21	73766	111.019017672869	3
21	73825	111.019365672869	1
21	73920	111.019488413803	3
21	73966	111.019836413803	2
21	74049	111.019845910606	1
21	74160	111.114981725686	3
21	74192	111.115233725686	1
21	74213	111.115234110119	3
21	74314	111.115566110119	1
21	74332	111.115566697864	3
21	74398	111.117866697864	1
21	74412	111.117867082297	3
21	74501	111.120167082297	1
21	74943	112.010558445483	3
21	74980	112.010810445483	1
21	75060	112.011941047031	3
21	75095	112.012273047031	1
21	75181	112.014981725686	3
21	75217	112.015233725686	1
21	75732	113.012759998004	3
21	75849	113.013011998004	1
21	76058	113.015165684902	3
21	76168	113.015513684902	1
21	76876	114.012759998004	3
21	76932	114.013011998004	1
21	77657	115.012759998004	3
21	77713	115.013011998004	1
22	0	0	1
22	1400	0.331521478717	2
22	1516	0.331869478717	1
22	3240	0.810620170755	2
22	3261	0.810968170755	1
22	4939	1.332123035889	2
22	5015	1.332375035889	1
22	5158	1.335317834702	2
22	5204	1.335569834702	1
22	5270	1.335822404812	2
[...]
341	78906	117.9	0
341	78906	118	0
341	78906	118.011460608366	0
348	78906	0.1	0
348	78906	0.2	0
348	78906	0.3	0
348	78906	0.4	0
348	78906	0.5	0
348	78906	0.6	0
348	78906	0.7	0
348	78906	0.8	0
348	78906	0.9	0
348	78906	1	0
348	78906	1.1	0
348	78906	1.2	0
348	78906	1.3	0
348	78906	1.4	0
348	78906	1.5	0
348	78906	1.6	0
348	78906	1.7	0
348	78906	1.8	0
348	78906	1.9	0
348	78906	2	0
348	78906	2.1	0
348	78906	2.2	0
348	78906	2.3	0
348	78906	2.4	0
348	78906	2.5	0
348	78906	2.6	0
348	78906	2.7	0
348	78906	2.8	0
348	78906	2.9	0
348	78906	3	0
348	78906	3.1	0
348	78906	3.2	0
348	78906	3.3	0
348	78906	3.4	0
348	78906	3.5	0
348	78906	3.6	0
348	78906	3.7	0
348	78906	3.8	0
348	78906	3.9	0
348	78906	4	0
348	78906	4.1	0
348	78906	4.2	0
348	78906	4.3	0
348	78906	4.4	0
348	78906	4.5	0
348	78906	4.6	0
348	78906	4.7	0
348	78906	4.8	0
348	78906	4.9	0
348	78906	5	0
348	78906	5.1	0
348	78906	5.2	0
348	78906	5.3	0
348	78906	5.4	0
348	78906	5.5	0
348	78906	5.6	0
348	78906	5.7	0
348	78906	5.8	0
348	78906	5.9	0
348	78906	6	0
348	78906	6.1	0
348	78906	6.2	0
348	78906	6.3	0
348	78906	6.4	0
348	78906	6.5	0
348	78906	6.6	0
348	78906	6.7	0
348	78906	6.8	0
348	78906	6.9	0
348	78906	7	0
348	78906	7.1	0
348	78906	7.2	0
348	78906	7.3	0
348	78906	7.4	0
348	78906	7.5	0
348	78906	7.6	0
348	78906	7.7	0
348	78906	7.8	0
348	78906	7.9	0
348	78906	8	0
348	78906	8.1	0
348	78906	8.2	0
348	78906	8.3	0
348	78906	8.4	0
348	78906	8.5	0
348	78906	8.6	0
348	78906	8.7	0
348	78906	8.8	0
348	78906	8.9	0
348	78906	9	0
348	78906	9.1	0
348	78906	9.2	0
348	78906	9.3	0
348	78906	9.4	0
348	78906	9.5	0
348	78906	9.6	0
348	78906	9.7	0
348	78906	9.8	0
348	78906	9.9	0
348	78906	10	0
348	78906	10.1	0
348	78906	10.2	0
348	78906	10.3	0
348	78906	10.4	0
348	78906	10.5	0
348	78906	10.6	0
348	78906	10.7	0
348	78906	10.8	0
348	78906	10.9	0
348	78906	11	0
348	78906	11.1	0
348	78906	11.2	0
348	78906	11.3	0
348	78906	11.4	0
348	78906	11.5	0
348	78906	11.6	0
348	78906	11.7	0
348	78906	11.8	0
348	78906	11.9	0
348	78906	12	0
348	78906	12.1	0
348	78906	12.2	0
348	78906	12.3	0
348	78906	12.4	0
348	78906	12.5	0
348	78906	12.6	0
348	78906	12.7	0
348	78906	12.8	0
348	78906	12.9	0
348	78906	13	0
348	78906	13.1	0
348	78906	13.2	0
348	78906	13.3	0
348	78906	13.4	0
348	78906	13.5	0
348	78906	13.6	0
348	78906	13.7	0
348	78906	13.8	0
348	78906	13.9	0
348	78906	14	0
348	78906	14.1	0
348	78906	14.2	0
348	78906	14.3	0
348	78906	14.4	0
348	78906	14.5	0
348	78906	14.6	0
348	78906	14.7	0
348	78906	14.8	0
348	78906	14.9	0
348	78906	15	0
348	78906	15.1	0
348	78906	15.2	0
348	78906	15.3	0
348	78906	15.4	0
348	78906	15.5	0
348	78906	15.6	0
348	78906	15.7	0
348	78906	15.8	0
348	78906	15.9	0
348	78906	16	0
348	78906	16.1	0
348	78906	16.2	0
348	78906	16.3	0
348	78906	16.4	0
348	78906	16.5	0
348	78906	16.6	0
348	78906	16.7	0
348	78906	16.8	0
348	78906	16.9	0
348	78906	17	0
348	78906	17.1	0
348	78906	17.2	0
348	78906	17.3	0
348	78906	17.4	0
348	78906	17.5	0
348	78906	17.6	0
348	78906	17.7	0
348	78906	17.8	0
348	78906	17.9	0
348	78906	18	0
348	78906	18.1	0
348	78906	18.2	0
348	78906	18.3	0
348	78906	18.4	0
348	78906	18.5	0
348	78906	18.6	0
348	78906	18.7	0
348	78906	18.8	0
348	78906	18.9	0
348	78906	19	0
348	78906	19.1	0
348	78906	19.2	0
348	78906	19.3	0
348	78906	19.4	0
348	78906	19.5	0
348	78906	19.6	0
348	78906	19.7	0
348	78906	19.8	0
348	78906	19.9	0
348	78906	20	0
348	78906	20.1	0
348	78906	20.2	0
348	78906	20.3	0
348	78906	20.4	0
348	78906	20.5	0
348	78906	20.6	0
348	78906	20.7	0
348	78906	20.8	0
348	78906	20.9	0
348	78906	21	0
348	78906	21.1	0
348	78906	21.2	0
348	78906	21.3	0
348	78906	21.4	0
348	78906	21.5	0
348	78906	21.6	0
348	78906	21.7	0
348	78906	21.8	0
348	78906	21.9	0
348	78906	22	0
348	78906	22.1	0
348	78906	22.2	0
348	78906	22.3	0
348	78906	22.4	0
348	78906	22.5	0
348	78906	22.6	0
348	78906	22.7	0
348	78906	22.8	0
348	78906	22.9	0
348	78906	23	0
348	78906	23.1	0
348	78906	23.2	0
348	78906	23.3	0
348	78906	23.4	0
348	78906	23.5	0
348	78906	23.6	0
348	78906	23.7	0
348	78906	23.8	0
348	78906	23.9	0
348	78906	24	0
348	78906	24.1	0
348	78906	24.2	0
348	78906	24.3	0
348	78906	24.4	0
348	78906	24.5	0
348	78906	24.6	0
348	78906	24.7	0
348	78906	24.8	0
348	78906	24.9	0
348	78906	25	0
348	78906	25.1	0
348	78906	25.2	0
348	78906	25.3	0
348	78906	25.4	0
348	78906	25.5	0
348	78906	25.6	0
348	78906	25.7	0
348	78906	25.8	0
348	78906	25.9	0
348	78906	26	0
348	78906	26.1	0
348	78906	26.2	0
348	78906	26.3	0
348	78906	26.4	0
348	78906	26.5	0
348	78906	26.6	0
348	78906	26.7	0
348	78906	26.8	0
348	78906	26.9	0
348	78906	27	0
348	78906	27.1	0
348	78906	27.2	0
348	78906	27.3	0
348	78906	27.4	0
348	78906	27.5	0
348	78906	27.6	0
348	78906	27.7	0
348	78906	27.8	0
348	78906	27.9	0
348	78906	28	0
348	78906	28.1	0
348	78906	28.2	0
348	78906	28.3	0
348	78906	28.4	0
348	78906	28.5	0
348	78906	28.6	0
348	78906	28.7	0
348	78906	28.8	0
348	78906	28.9	0
348	78906	29	0
348	78906	29.1	0
348	78906	29.2	0
348	78906	29.3	0
348	78906	29.4	0
348	78906	29.5	0
348	78906	29.6	0
348	78906	29.7	0
348	78906	29.8	0
348	78906	29.9	0
348	78906	30	0
348	78906	30.1	0
348	78906	30.2	0
348	78906	30.3	0
348	78906	30.4	0
348	78906	30.5	0
348	78906	30.6	0
348	78906	30.7	0
348	78906	30.8	0
348	78906	30.9	0
348	78906	31	0
348	78906	31.1	0
348	78906	31.2	0
348	78906	31.3	0
348	78906	31.4	0
348	78906	31.5	0
348	78906	31.6	0
348	78906	31.7	0
348	78906	31.8	0
348	78906	31.9	0
348	78906	32	0
348	78906	32.1	0
348	78906	32.2	0
348	78906	32.3	0
348	78906	32.4	0
348	78906	32.5	0
348	78906	32.6	0
348	78906	32.7	0
348	78906	32.8	0
348	78906	32.9	0
348	78906	33	0
348	78906	33.1	0
348	78906	33.2	0
348	78906	33.3	0
348	78906	33.4	0
348	78906	33.5	0
348	78906	33.6	0
348	78906	33.7	0
348	78906	33.8	0
348	78906	33.9	0
348	78906	34	0
348	78906	34.1	0
348	78906	34.2	0
348	78906	34.3	0
348	78906	34.4	0
348	78906	34.5	0
348	78906	34.6	0
348	78906	34.7	0
348	78906	34.8	0
348	78906	34.9	0
348	78906	35	0
348	78906	35.1	0
348	78906	35.2	0
348	78906	35.3	0
348	78906	35.4	0
348	78906	35.5	0
348	78906	35.6	0
348	78906	35.7	0
348	78906	35.8	0
348	78906	35.9	0
348	78906	36	0
348	78906	36.1	0
348	78906	36.2	0
348	78906	36.3	0
348	78906	36.4	0
348	78906	36.5	0
348	78906	36.6	0
348	78906	36.7	0
348	78906	36.8	0
348	78906	36.9	0
348	78906	37	0
348	78906	37.1	0
348	78906	37.2	0
348	78906	37.3	0
348	78906	37.4	0
348	78906	37.5	0
348	78906	37.6	0
348	78906	37.7	0
348	78906	37.8	0
348	78906	37.9	0
348	78906	38	0
348	78906	38.1	0
348	78906	38.2	0
348	78906	38.3	0
348	78906	38.4	0
348	78906	38.5	0
348	78906	38.6	0
348	78906	38.7	0
348	78906	38.8	0
348	78906	38.9	0
348	78906	39	0
348	78906	39.1	0
348	78906	39.2	0
348	78906	39.3	0
348	78906	39.4	0
348	78906	39.5	0
348	78906	39.6	0
348	78906	39.7	0
348	78906	39.8	0
348	78906	39.9	0
348	78906	40	0
348	78906	40.1	0
348	78906	40.2	0
348	78906	40.3	0
348	78906	40.4	0
348	78906	40.5	0
348	78906	40.6	0
348	78906	40.7	0
348	78906	40.8	0
348	78906	40.9	0
348	78906	41	0
348	78906	41.1	0
348	78906	41.2	0
348	78906	41.3	0
348	78906	41.4	0
348	78906	41.5	0
348	78906	41.6	0
348	78906	41.7	0
348	78906	41.8	0
348	78906	41.9	0
348	78906	42	0
348	78906	42.1	0
348	78906	42.2	0
348	78906	42.3	0
348	78906	42.4	0
348	78906	42.5	0
348	78906	42.6	0
348	78906	42.7	0
348	78906	42.8	0
348	78906	42.9	0
348	78906	43	0
348	78906	43.1	0
348	78906	43.2	0
348	78906	43.3	0
348	78906	43.4	0
348	78906	43.5	0
348	78906	43.6	0
348	78906	43.7	0
348	78906	43.8	0
348	78906	43.9	0
348	78906	44	0
348	78906	44.1	0
348	78906	44.2	0
348	78906	44.3	0
348	78906	44.4	0
348	78906	44.5	0
348	78906	44.6	0
348	78906	44.7	0
348	78906	44.8	0
348	78906	44.9	0
348	78906	45	0
348	78906	45.1	0
348	78906	45.2	0
348	78906	45.3	0
348	78906	45.4	0
348	78906	45.5	0
348	78906	45.6	0
348	78906	45.7	0
348	78906	45.8	0
348	78906	45.9	0
348	78906	46	0
348	78906	46.1	0
348	78906	46.2	0
348	78906	46.3	0
348	78906	46.4	0
348	78906	46.5	0
348	78906	46.6	0
348	78906	46.7	0
348	78906	46.8	0
348	78906	46.9	0
348	78906	47	0
348	78906	47.1	0
348	78906	47.2	0
348	78906	47.3	0
348	78906	47.4	0
348	78906	47.5	0
348	78906	47.6	0
348	78906	47.7	0
348	78906	47.8	0
348	78906	47.9	0
348	78906	48	0
348	78906	48.1	0
348	78906	48.2	0
348	78906	48.3	0
348	78906	48.4	0
348	78906	48.5	0
348	78906	48.6	0
348	78906	48.7	0
348	78906	48.8	0
348	78906	48.9	0
348	78906	49	0
348	78906	49.1	0
348	78906	49.2	0
348	78906	49.3	0
348	78906	49.4	0
348	78906	49.5	0
348	78906	49.6	0
348	78906	49.7	0
348	78906	49.8	0
348	78906	49.9	0
348	78906	50	0
348	78906	50.1	0
348	78906	50.2	0
348	78906	50.3	0
348	78906	50.4	0
348	78906	50.5	0
348	78906	50.6	0
348	78906	50.7	0
348	78906	50.8	0
348	78906	50.9	0
348	78906	51	0
348	78906	51.1	0
348	78906	51.2	0
348	78906	51.3	0
348	78906	51.4	0
348	78906	51.5	0
348	78906	51.6	0
348	78906	51.7	0
348	78906	51.8	0
348	78906	51.9	0
348	78906	52	0
348	78906	52.1	0
348	78906	52.2	0
348	78906	52.3	0
348	78906	52.4	0
348	78906	52.5	0
348	78906	52.6	0
348	78906	52.7	0
348	78906	52.8	0
348	78906	52.9	0
348	78906	53	0
348	78906	53.1	0
348	78906	53.2	0
348	78906	53.3	0
348	78906	53.4	0
348	78906	53.5	0
348	78906	53.6	0
348	78906	53.7	0
348	78906	53.8	0
348	78906	53.9	0
348	78906	54	0
348	78906	54.1	0
348	78906	54.2	0
348	78906	54.3	0
348	78906	54.4	0
348	78906	54.5	0
348	78906	54.6	0
348	78906	54.7	0
348	78906	54.8	0
348	78906	54.9	0
348	78906	55	0
348	78906	55.1	0
348	78906	55.2	0
348	78906	55.3	0
348	78906	55.4	0
348	78906	55.5	0
348	78906	55.6	0
348	78906	55.7	0
348	78906	55.8	0
348	78906	55.9	0
348	78906	56	0
348	78906	56.1	0
348	78906	56.2	0
348	78906	56.3	0
348	78906	56.4	0
348	78906	56.5	0
348	78906	56.6	0
348	78906	56.7	0
348	78906	56.8	0
348	78906	56.9	0
348	78906	57	0
348	78906	57.1	0
348	78906	57.2	0
348	78906	57.3	0
348	78906	57.4	0
348	78906	57.5	0
348	78906	57.6	0
348	78906	57.7	0
348	78906	57.8	0
348	78906	57.9	0
348	78906	58	0
348	78906	58.1	0
348	78906	58.2	0
348	78906	58.3	0
348	78906	58.4	0
348	78906	58.5	0
348	78906	58.6	0
348	78906	58.7	0
348	78906	58.8	0
348	78906	58.9	0
348	78906	59	0
348	78906	59.1	0
348	78906	59.2	0
348	78906	59.3	0
348	78906	59.4	0
348	78906	59.5	0
348	78906	59.6	0
348	78906	59.7	0
348	78906	59.8	0
348	78906	59.9	0
348	78906	60	0
348	78906	60.1	0
348	78906	60.2	0
348	78906	60.3	0
348	78906	60.4	0
348	78906	60.5	0
348	78906	60.6	0
348	78906	60.7	0
348	78906	60.8	0
348	78906	60.9	0
348	78906	61	0
348	78906	61.1	0
348	78906	61.2	0
348	78906	61.3	0
348	78906	61.4	0
348	78906	61.5	0
348	78906	61.6	0
348	78906	61.7	0
348	78906	61.8	0
348	78906	61.9	0
348	78906	62	0
348	78906	62.1	0
348	78906	62.2	0
348	78906	62.3	0
348	78906	62.4	0
348	78906	62.5	0
348	78906	62.6	0
348	78906	62.7	0
348	78906	62.8	0
348	78906	62.9	0
348	78906	63	0
348	78906	63.1	0
348	78906	63.2	0
348	78906	63.3	0
348	78906	63.4	0
348	78906	63.5	0
348	78906	63.6	0
348	78906	63.7	0
348	78906	63.8	0
348	78906	63.9	0
348	78906	64	0
348	78906	64.1	0
348	78906	64.2	0
348	78906	64.3	0
348	78906	64.4	0
348	78906	64.5	0
348	78906	64.6	0
348	78906	64.7	0
348	78906	64.8	0
348	78906	64.9	0
348	78906	65	0
348	78906	65.1	0
348	78906	65.2	0
348	78906	65.3	0
348	78906	65.4	0
348	78906	65.5	0
348	78906	65.6	0
348	78906	65.7	0
348	78906	65.8	0
348	78906	65.9	0
348	78906	66	0
348	78906	66.1	0
348	78906	66.2	0
348	78906	66.3	0
348	78906	66.4	0
348	78906	66.5	0
348	78906	66.6	0
348	78906	66.7	0
348	78906	66.8	0
348	78906	66.9	0
348	78906	67	0
348	78906	67.1	0
348	78906	67.2	0
348	78906	67.3	0
348	78906	67.4	0
348	78906	67.5	0
348	78906	67.6	0
348	78906	67.7	0
348	78906	67.8	0
348	78906	67.9	0
348	78906	68	0
348	78906	68.1	0
348	78906	68.2	0
348	78906	68.3	0
348	78906	68.4	0
348	78906	68.5	0
348	78906	68.6	0
348	78906	68.7	0
348	78906	68.8	0
348	78906	68.9	0
348	78906	69	0
348	78906	69.1	0
348	78906	69.2	0
348	78906	69.3	0
348	78906	69.4	0
348	78906	69.5	0
348	78906	69.6	0
348	78906	69.7	0
348	78906	69.8	0
348	78906	69.9	0
348	78906	70	0
348	78906	70.1	0
348	78906	70.2	0
348	78906	70.3	0
348	78906	70.4	0
348	78906	70.5	0
348	78906	70.6	0
348	78906	70.7	0
348	78906	70.8	0
348	78906	70.9	0
348	78906	71	0
348	78906	71.1	0
348	78906	71.2	0
348	78906	71.3	0
348	78906	71.4	0
348	78906	71.5	0
348	78906	71.6	0
348	78906	71.7	0
348	78906	71.8	0
348	78906	71.9	0
348	78906	72	0
348	78906	72.1	0
348	78906	72.2	0
348	78906	72.3	0
348	78906	72.4	0
348	78906	72.5	0
348	78906	72.6	0
348	78906	72.7	0
348	78906	72.8	0
348	78906	72.9	0
348	78906	73	0
348	78906	73.1	0
348	78906	73.2	0
348	78906	73.3	0
348	78906	73.4	0
348	78906	73.5	0
348	78906	73.6	0
348	78906	73.7	0
348	78906	73.8	0
348	78906	73.9	0
348	78906	74	0
348	78906	74.1	0
348	78906	74.2	0
348	78906	74.3	0
348	78906	74.4	0
348	78906	74.5	0
348	78906	74.6	0
348	78906	74.7	0
348	78906	74.8	0
348	78906	74.9	0
348	78906	75	0
348	78906	75.1	0
348	78906	75.2	0
348	78906	75.3	0
348	78906	75.4	0
348	78906	75.5	0
348	78906	75.6	0
348	78906	75.7	0
348	78906	75.8	0
348	78906	75.9	0
348	78906	76	0
348	78906	76.1	0
348	78906	76.2	0
348	78906	76.3	0
348	78906	76.4	0
348	78906	76.5	0
348	78906	76.6	0
348	78906	76.7	0
348	78906	76.8	0
348	78906	76.9	0
348	78906	77	0
348	78906	77.1	0
348	78906	77.2	0
348	78906	77.3	0
348	78906	77.4	0
348	78906	77.5	0
348	78906	77.6	0
348	78906	77.7	0
348	78906	77.8	0
348	78906	77.9	0
348	78906	78	0
348	78906	78.1	0
348	78906	78.2	0
348	78906	78.3	0
348	78906	78.4	0
348	78906	78.5	0
348	78906	78.6	0
348	78906	78.7	0
348	78906	78.8	0
348	78906	78.9	0
348	78906	79	0
348	78906	79.1	0
348	78906	79.2	0
348	78906	79.3	0
348	78906	79.4	0
348	78906	79.5	0
348	78906	79.6	0
348	78906	79.7	0
348	78906	79.8	0
348	78906	79.9	0
348	78906	80	0
348	78906	80.1	0
348	78906	80.2	0
348	78906	80.3	0
348	78906	80.4	0
348	78906	80.5	0
348	78906	80.6	0
348	78906	80.7	0
348	78906	80.8	0
348	78906	80.9	0
348	78906	81	0
348	78906	81.1	0
348	78906	81.2	0
348	78906	81.3	0
348	78906	81.4	0
348	78906	81.5	0
348	78906	81.6	0
348	78906	81.7	0
348	78906	81.8	0
348	78906	81.9	0
348	78906	82	0
348	78906	82.1	0
348	78906	82.2	0
348	78906	82.3	0
348	78906	82.4	0
348	78906	82.5	0
348	78906	82.6	0
348	78906	82.7	0
348	78906	82.8	0
348	78906	82.9	0
348	78906	83	0
348	78906	83.1	0
348	78906	83.2	0
348	78906	83.3	0
348	78906	83.4	0
348	78906	83.5	0
348	78906	83.6	0
348	78906	83.7	0
348	78906	83.8	0
348	78906	83.9	0
348	78906	84	0
348	78906	84.1	0
348	78906	84.2	0
348	78906	84.3	0
348	78906	84.4	0
348	78906	84.5	0
348	78906	84.6	0
348	78906	84.7	0
348	78906	84.8	0
348	78906	84.9	0
348	78906	85	0
348	78906	85.1	0
348	78906	85.2	0
348	78906	85.3	0
348	78906	85.4	0
348	78906	85.5	0
348	78906	85.6	0
348	78906	85.7	0
348	78906	85.8	0
348	78906	85.9	0
348	78906	86	0
348	78906	86.1	0
348	78906	86.2	0
348	78906	86.3	0
348	78906	86.4	0
348	78906	86.5	0
348	78906	86.6	0
348	78906	86.7	0
348	78906	86.8	0
348	78906	86.9	0
348	78906	87	0
348	78906	87.1	0
348	78906	87.2	0
348	78906	87.3	0
348	78906	87.4	0
348	78906	87.5	0
348	78906	87.6	0
348	78906	87.7	0
348	78906	87.8	0
348	78906	87.9	0
348	78906	88	0
348	78906	88.1	0
348	78906	88.2	0
348	78906	88.3	0
348	78906	88.4	0
348	78906	88.5	0
348	78906	88.6	0
348	78906	88.7	0
348	78906	88.8	0
348	78906	88.9	0
348	78906	89	0
348	78906	89.1	0
348	78906	89.2	0
348	78906	89.3	0
348	78906	89.4	0
348	78906	89.5	0
348	78906	89.6	0
348	78906	89.7	0
348	78906	89.8	0
348	78906	89.9	0
348	78906	90	0
348	78906	90.1	0
348	78906	90.2	0
348	78906	90.3	0
348	78906	90.4	0
348	78906	90.5	0
348	78906	90.6	0
348	78906	90.7	0
348	78906	90.8	0
348	78906	90.9	0
348	78906	91	0
348	78906	91.1	0
348	78906	91.2	0
348	78906	91.3	0
348	78906	91.4	0
348	78906	91.5	0
348	78906	91.6	0
348	78906	91.7	0
348	78906	91.8	0
348	78906	91.9	0
348	78906	92	0
348	78906	92.1	0
348	78906	92.2	0
348	78906	92.3	0
348	78906	92.4	0
348	78906	92.5	0
348	78906	92.6	0
348	78906	92.7	0
348	78906	92.8	0
348	78906	92.9	0
348	78906	93	0
348	78906	93.1	0
348	78906	93.2	0
348	78906	93.3	0
348	78906	93.4	0
348	78906	93.5	0
348	78906	93.6	0
348	78906	93.7	0
348	78906	93.8	0
348	78906	93.9	0
348	78906	94	0
348	78906	94.1	0
348	78906	94.2	0
348	78906	94.3	0
348	78906	94.4	0
348	78906	94.5	0
348	78906	94.6	0
348	78906	94.7	0
348	78906	94.8	0
348	78906	94.9	0
348	78906	95	0
348	78906	95.1	0
348	78906	95.2	0
348	78906	95.3	0
348	78906	95.4	0
348	78906	95.5	0
348	78906	95.6	0
348	78906	95.7	0
348	78906	95.8	0
348	78906	95.9	0
348	78906	96	0
348	78906	96.1	0
348	78906	96.2	0
348	78906	96.3	0
348	78906	96.4	0
348	78906	96.5	0
348	78906	96.6	0
348	78906	96.7	0
348	78906	96.8	0
348	78906	96.9	0
348	78906	97	0
348	78906	97.1	0
348	78906	97.2	0
348	78906	97.3	0
348	78906	97.4	0
348	78906	97.5	0
348	78906	97.6	0
348	78906	97.7	0
348	78906	97.8	0
348	78906	97.9	0
348	78906	98	0
348	78906	98.1	0
348	78906	98.2	0
348	78906	98.3	0
348	78906	98.4	0
348	78906	98.5	0
348	78906	98.6	0
348	78906	98.7	0
348	78906	98.8	0
348	78906	98.9	0
348	78906	99	0
348	78906	99.1	0
348	78906	99.2	0
348	78906	99.3	0
348	78906	99.4	0
348	78906	99.5	0
348	78906	99.6	0
348	78906	99.7	0
348	78906	99.8	0
348	78906	99.9	0
348	78906	100	0
348	78906	100.1	0
348	78906	100.2	0
348	78906	100.3	0
348	78906	100.4	0
348	78906	100.5	0
348	78906	100.6	0
348	78906	100.7	0
348	78906	100.8	0
348	78906	100.9	0
348	78906	101	0
348	78906	101.1	0
348	78906	101.2	0
348	78906	101.3	0
348	78906	101.4	0
348	78906	101.5	0
348	78906	101.6	0
348	78906	101.7	0
348	78906	101.8	0
348	78906	101.9	0
348	78906	102	0
348	78906	102.1	0
348	78906	102.2	0
348	78906	102.3	0
348	78906	102.4	0
348	78906	102.5	0
348	78906	102.6	0
348	78906	102.7	0
348	78906	102.8	0
348	78906	102.9	0
348	78906	103	0
348	78906	103.1	0
348	78906	103.2	0
348	78906	103.3	0
348	78906	103.4	0
348	78906	103.5	0
348	78906	103.6	0
348	78906	103.7	0
348	78906	103.8	0
348	78906	103.9	0
348	78906	104	0
348	78906	104.1	0
348	78906	104.2	0
348	78906	104.3	0
348	78906	104.4	0
348	78906	104.5	0
348	78906	104.6	0
348	78906	104.7	0
348	78906	104.8	0
348	78906	104.9	0
348	78906	105	0
348	78906	105.1	0
348	78906	105.2	0
348	78906	105.3	0
348	78906	105.4	0
348	78906	105.5	0
348	78906	105.6	0
348	78906	105.7	0
348	78906	105.8	0
348	78906	105.9	0
348	78906	106	0
348	78906	106.1	0
348	78906	106.2	0
348	78906	106.3	0
348	78906	106.4	0
348	78906	106.5	0
348	78906	106.6	0
348	78906	106.7	0
348	78906	106.8	0
348	78906	106.9	0
348	78906	107	0
348	78906	107.1	0
348	78906	107.2	0
348	78906	107.3	0
348	78906	107.4	0
348	78906	107.5	0
348	78906	107.6	0
348	78906	107.7	0
348	78906	107.8	0
348	78906	107.9	0
348	78906	108	0
348	78906	108.1	0
348	78906	108.2	0
348	78906	108.3	0
348	78906	108.4	0
348	78906	108.5	0
348	78906	108.6	0
348	78906	108.7	0
348	78906	108.8	0
348	78906	108.9	0
348	78906	109	0
348	78906	109.1	0
348	78906	109.2	0
348	78906	109.3	0
348	78906	109.4	0
348	78906	109.5	0
348	78906	109.6	0
348	78906	109.7	0
348	78906	109.8	0
348	78906	109.9	0
348	78906	110	0
348	78906	110.1	0
348	78906	110.2	0
348	78906	110.3	0
348	78906	110.4	0
348	78906	110.5	0
348	78906	110.6	0
348	78906	110.7	0
348	78906	110.8	0
348	78906	110.9	0
348	78906	111	0
348	78906	111.1	0
348	78906	111.2	0
348	78906	111.3	0
348	78906	111.4	0
348	78906	111.5	0
348	78906	111.6	0
348	78906	111.7	0
348	78906	111.8	0
348	78906	111.9	0
348	78906	112	0
348	78906	112.1	0
348	78906	112.2	0
348	78906	112.3	0
348	78906	112.4	0
348	78906	112.5	0
348	78906	112.6	0
348	78906	112.7	0
348	78906	112.8	0
348	78906	112.9	0
348	78906	113	0
348	78906	113.1	0
348	78906	113.2	0
348	78906	113.3	0
348	78906	113.4	0
348	78906	113.5	0
348	78906	113.6	0
348	78906	113.7	0
348	78906	113.8	0
348	78906	113.9	0
348	78906	114	0
348	78906	114.1	0
348	78906	114.2	0
348	78906	114.3	0
348	78906	114.4	0
348	78906	114.5	0
348	78906	114.6	0
348	78906	114.7	0
348	78906	114.8	0
348	78906	114.9	0
348	78906	115	0
348	78906	115.1	0
348	78906	115.2	0
348	78906	115.3	0
348	78906	115.4	0
348	78906	115.5	0
348	78906	115.6	0
348	78906	115.7	0
348	78906	115.8	0
348	78906	115.9	0
348	78906	116	0
348	78906	116.1	0
348	78906	116.2	0
348	78906	116.3	0
348	78906	116.4	0
348	78906	116.5	0
348	78906	116.6	0
348	78906	116.7	0
348	78906	116.8	0
348	78906	116.9	0
348	78906	117	0
348	78906	117.1	0
348	78906	117.2	0
348	78906	117.3	0
348	78906	117.4	0
348	78906	117.5	0
348	78906	117.6	0
348	78906	117.7	0
348	78906	117.8	0
348	78906	117.9	0
348	78906	118	0
348	78906	118.011460608366	0

