version 2
run General-0-20210413-20:43:59-8701
attr configname General
attr datetime 20210413-20:43:59
attr experiment General
attr inifile test.ini
attr iterationvars ""
attr iterationvarsf ""
attr measurement ""
attr network TEST
attr processid 8701
attr repetition 0
attr replication #0
attr resultdir results
attr runnumber 0
attr seedset 0
param **.wlan[*].typename "\"AckingWirelessInterface\""
param **.wlan[*].bitrate 2Mbps
param **.wlan[*].mac.headerLength 23B
param **.wlan[*].radio.typename "\"UnitDiskRadio\""
param **.wlan[*].radio.transmitter.communicationRange 200m
param **.wlan[*].radio.transmitter.interferenceRange 0m
param **.wlan[*].radio.transmitter.detectionRange 0m
param **.wlan[*].radio.receiver.ignoreInterference true
param *.visualizer.networkRouteVisualizer.lineShift 0
param *.visualizer.transportRouteVisualizer.displayRoutes true
param *.visualizer.transportRouteVisualizer.fadeOutMode "\"simulationTime\""
param *.visualizer.transportRouteVisualizer.fadeOutTime 1.2s
param *.visualizer.interfaceTableVisualizer.displayInterfaceTables true
param *.sender*.numApps 1
param *.sender*.app[0].typename "\"UdpBasicApp\""
param *.sender*.app[0].destAddresses "\"receiver\""
param *.sender*.app[0].destPort 1000
param *.sender*.app[0].sendInterval 1s
param *.sender*.app[0].startTime 0s
param *.sender*.app[0].messageLength 1000Byte
param *.sender*.app[0].packetName "\"UDPdata\""
param *.receiver.numApps 1
param *.receiver.app[0].typename "\"UdpSink\""
param *.receiver.app[0].localPort 1000

vector 0 TEST.N1.wlan[0].radio radioMode:vector ETV
attr interpolationmode sample-hold
attr source radioModeChanged
attr title "Radio mode, vector"
vector 1 TEST.N2.wlan[0].radio radioMode:vector ETV
attr interpolationmode sample-hold
attr source radioModeChanged
attr title "Radio mode, vector"
vector 2 TEST.sender0.wlan[0].radio radioMode:vector ETV
attr interpolationmode sample-hold
attr source radioModeChanged
attr title "Radio mode, vector"
vector 3 TEST.receiver.wlan[0].radio radioMode:vector ETV
attr interpolationmode sample-hold
attr source radioModeChanged
attr title "Radio mode, vector"
vector 4 TEST.ntu_Attacker_Blackhole.wlan[0].radio radioMode:vector ETV
attr interpolationmode sample-hold
attr source radioModeChanged
attr title "Radio mode, vector"
vector 5 TEST.ntu_Attacker_Blackhole1.wlan[0].radio radioMode:vector ETV
attr interpolationmode sample-hold
attr source radioModeChanged
attr title "Radio mode, vector"
vector 6 TEST.N3.wlan[0].radio radioMode:vector ETV
attr interpolationmode sample-hold
attr source radioModeChanged
attr title "Radio mode, vector"
vector 7 TEST.N4.wlan[0].radio radioMode:vector ETV
attr interpolationmode sample-hold
attr source radioModeChanged
attr title "Radio mode, vector"
vector 8 TEST.N5.wlan[0].radio radioMode:vector ETV
attr interpolationmode sample-hold
attr source radioModeChanged
attr title "Radio mode, vector"
vector 9 TEST.N1.wlan[0].radio receptionState:vector ETV
attr interpolationmode sample-hold
attr source receptionStateChanged
attr title "Radio reception state, vector"
vector 10 TEST.N1.wlan[0].radio transmissionState:vector ETV
attr interpolationmode sample-hold
attr source transmissionStateChanged
attr title "Radio transmission state, vector"
vector 11 TEST.N2.wlan[0].radio receptionState:vector ETV
attr interpolationmode sample-hold
attr source receptionStateChanged
attr title "Radio reception state, vector"
vector 12 TEST.N2.wlan[0].radio transmissionState:vector ETV
attr interpolationmode sample-hold
attr source transmissionStateChanged
attr title "Radio transmission state, vector"
vector 13 TEST.sender0.wlan[0].radio receptionState:vector ETV
attr interpolationmode sample-hold
attr source receptionStateChanged
attr title "Radio reception state, vector"
vector 14 TEST.sender0.wlan[0].radio transmissionState:vector ETV
attr interpolationmode sample-hold
attr source transmissionStateChanged
attr title "Radio transmission state, vector"
vector 15 TEST.receiver.wlan[0].radio receptionState:vector ETV
attr interpolationmode sample-hold
attr source receptionStateChanged
attr title "Radio reception state, vector"
vector 16 TEST.receiver.wlan[0].radio transmissionState:vector ETV
attr interpolationmode sample-hold
attr source transmissionStateChanged
attr title "Radio transmission state, vector"
vector 17 TEST.ntu_Attacker_Blackhole.wlan[0].radio receptionState:vector ETV
attr interpolationmode sample-hold
attr source receptionStateChanged
attr title "Radio reception state, vector"
vector 18 TEST.ntu_Attacker_Blackhole.wlan[0].radio transmissionState:vector ETV
attr interpolationmode sample-hold
attr source transmissionStateChanged
attr title "Radio transmission state, vector"
vector 19 TEST.ntu_Attacker_Blackhole1.wlan[0].radio receptionState:vector ETV
attr interpolationmode sample-hold
attr source receptionStateChanged
attr title "Radio reception state, vector"
vector 20 TEST.ntu_Attacker_Blackhole1.wlan[0].radio transmissionState:vector ETV
attr interpolationmode sample-hold
attr source transmissionStateChanged
attr title "Radio transmission state, vector"
vector 21 TEST.N3.wlan[0].radio receptionState:vector ETV
attr interpolationmode sample-hold
attr source receptionStateChanged
attr title "Radio reception state, vector"
vector 22 TEST.N3.wlan[0].radio transmissionState:vector ETV
attr interpolationmode sample-hold
attr source transmissionStateChanged
attr title "Radio transmission state, vector"
vector 23 TEST.N4.wlan[0].radio receptionState:vector ETV
attr interpolationmode sample-hold
attr source receptionStateChanged
attr title "Radio reception state, vector"
vector 24 TEST.N4.wlan[0].radio transmissionState:vector ETV
attr interpolationmode sample-hold
attr source transmissionStateChanged
attr title "Radio transmission state, vector"
vector 25 TEST.N5.wlan[0].radio receptionState:vector ETV
attr interpolationmode sample-hold
attr source receptionStateChanged
attr title "Radio reception state, vector"
vector 26 TEST.N5.wlan[0].radio transmissionState:vector ETV
attr interpolationmode sample-hold
attr source transmissionStateChanged
attr title "Radio transmission state, vector"
vector 27 TEST.sender0.app[0] packetSent:vector(packetBytes) ETV
attr interpolationmode none
attr source packetSent
attr title "packets sent, vector(packetBytes)"
vector 28 TEST.sender0.udp packetSent:vector(packetBytes) ETV
attr interpolationmode none
attr source packetSent
attr title "packets sent, vector(packetBytes)"
vector 29 TEST.sender0.wlan[0].mac rcvdPkFromHl:vector(packetBytes) ETV
attr interpolationmode none
attr source packetReceivedFromUpper
attr title "packets received from higher layer, vector(packetBytes)"
vector 30 TEST.sender0.wlan[0].mac.queue packetPushed:vector(packetBytes) ETV
attr interpolationmode none
attr title "packet pushed, vector(packetBytes)"
vector 31 TEST.sender0.wlan[0].mac.queue queueLength:vector ETV
attr interpolationmode sample-hold
attr source "count(packetPushed) - count(packetPopped) - count(packetRemoved) - count(packetDropped)"
attr title "queue length, vector"
vector 32 TEST.sender0.wlan[0].mac.queue packetPopped:vector(packetBytes) ETV
attr interpolationmode none
attr title "packet popped, vector(packetBytes)"
vector 33 TEST.sender0.wlan[0].mac.queue queueingTime:vector ETV
attr interpolationmode none
attr source queueingTime(packetPopped)
attr title "queueing times, vector"
attr unit s
vector 34 TEST.sender0.wlan[0].mac sentDownPk:vector(packetBytes) ETV
attr interpolationmode none
attr source packetSentToLower
attr title "packets sent to lower layer, vector(packetBytes)"
vector 35 TEST.ntu_Attacker_Blackhole1.wlan[0].mac rcvdPkFromLl:vector(packetBytes) ETV
attr interpolationmode none
attr source packetReceivedFromLower
attr title "packets received from lower layer, vector(packetBytes)"
vector 36 TEST.ntu_Attacker_Blackhole1.wlan[0].mac passedUpPk:vector(packetBytes) ETV
attr interpolationmode none
attr source packetSentToUpper
attr title "packets passed to higher layer, vector(packetBytes)"
vector 37 TEST.ntu_Attacker_Blackhole1.udp packetReceived:vector(packetBytes) ETV
attr interpolationmode none
attr source packetReceived
attr title "packets received, vector(packetBytes)"
vector 38 TEST.ntu_Attacker_Blackhole1.udp passedUpPk:vector(count) ETV
attr interpolationmode none
attr source packetSentToUpper
attr title "packets passed up, vector(count)"
vector 39 TEST.ntu_Attacker_Blackhole1.udp packetSent:vector(packetBytes) ETV
attr interpolationmode none
attr source packetSent
attr title "packets sent, vector(packetBytes)"
vector 40 TEST.ntu_Attacker_Blackhole1.ipv4.arp arpRequestSent:vector(packetBytes) ETV
attr source arpRequestSent
attr title "ARP request sent, vector(packetBytes)"
vector 41 TEST.ntu_Attacker_Blackhole1.wlan[0].mac rcvdPkFromHl:vector(packetBytes) ETV
attr interpolationmode none
attr source packetReceivedFromUpper
attr title "packets received from higher layer, vector(packetBytes)"
vector 42 TEST.ntu_Attacker_Blackhole1.wlan[0].mac.queue packetPushed:vector(packetBytes) ETV
attr interpolationmode none
attr title "packet pushed, vector(packetBytes)"
vector 43 TEST.ntu_Attacker_Blackhole1.wlan[0].mac.queue queueLength:vector ETV
attr interpolationmode sample-hold
attr source "count(packetPushed) - count(packetPopped) - count(packetRemoved) - count(packetDropped)"
attr title "queue length, vector"
vector 44 TEST.ntu_Attacker_Blackhole1.wlan[0].mac.queue packetPopped:vector(packetBytes) ETV
attr interpolationmode none
attr title "packet popped, vector(packetBytes)"
vector 45 TEST.ntu_Attacker_Blackhole1.wlan[0].mac.queue queueingTime:vector ETV
attr interpolationmode none
attr source queueingTime(packetPopped)
attr title "queueing times, vector"
attr unit s
vector 46 TEST.ntu_Attacker_Blackhole1.wlan[0].mac sentDownPk:vector(packetBytes) ETV
attr interpolationmode none
attr source packetSentToLower
attr title "packets sent to lower layer, vector(packetBytes)"
vector 47 TEST.N4.wlan[0].mac rcvdPkFromLl:vector(packetBytes) ETV
attr interpolationmode none
attr source packetReceivedFromLower
attr title "packets received from lower layer, vector(packetBytes)"
vector 48 TEST.N4.wlan[0].mac passedUpPk:vector(packetBytes) ETV
attr interpolationmode none
attr source packetSentToUpper
attr title "packets passed to higher layer, vector(packetBytes)"
vector 49 TEST.N4.udp packetReceived:vector(packetBytes) ETV
attr interpolationmode none
attr source packetReceived
attr title "packets received, vector(packetBytes)"
vector 50 TEST.N4.udp passedUpPk:vector(count) ETV
attr interpolationmode none
attr source packetSentToUpper
attr title "packets passed up, vector(count)"
vector 51 TEST.N5.wlan[0].mac rcvdPkFromLl:vector(packetBytes) ETV
attr interpolationmode none
attr source packetReceivedFromLower
attr title "packets received from lower layer, vector(packetBytes)"
vector 52 TEST.N5.wlan[0].mac passedUpPk:vector(packetBytes) ETV
attr interpolationmode none
attr source packetSentToUpper
attr title "packets passed to higher layer, vector(packetBytes)"
vector 53 TEST.N5.udp packetReceived:vector(packetBytes) ETV
attr interpolationmode none
attr source packetReceived
attr title "packets received, vector(packetBytes)"
vector 54 TEST.N5.udp passedUpPk:vector(count) ETV
attr interpolationmode none
attr source packetSentToUpper
attr title "packets passed up, vector(count)"
vector 55 TEST.sender0.wlan[0].mac rcvdPkFromLl:vector(packetBytes) ETV
attr interpolationmode none
attr source packetReceivedFromLower
attr title "packets received from lower layer, vector(packetBytes)"
vector 56 TEST.sender0.wlan[0].mac passedUpPk:vector(packetBytes) ETV
attr interpolationmode none
attr source packetSentToUpper
attr title "packets passed to higher layer, vector(packetBytes)"
vector 57 TEST.sender0.ipv4.arp arpReplySent:vector(packetBytes) ETV
attr source arpReplySent
attr title "ARP replies sent, vector(packetBytes)"
vector 58 TEST.N4.wlan[0].mac packetDropNotAddressedToUs:vector(packetBytes) ETV
attr interpolationmode none
attr source packetDropReasonIsNotAddressedToUs(packetDropped)
attr title "packet drop: not addressed to us, vector(packetBytes)"
vector 59 TEST.N5.wlan[0].mac packetDropNotAddressedToUs:vector(packetBytes) ETV
attr interpolationmode none
attr source packetDropReasonIsNotAddressedToUs(packetDropped)
attr title "packet drop: not addressed to us, vector(packetBytes)"
vector 60 TEST.sender0.udp packetReceived:vector(packetBytes) ETV
attr interpolationmode none
attr source packetReceived
attr title "packets received, vector(packetBytes)"
vector 61 TEST.sender0.udp passedUpPk:vector(count) ETV
attr interpolationmode none
attr source packetSentToUpper
attr title "packets passed up, vector(count)"
vector 62 TEST.N4.udp packetSent:vector(packetBytes) ETV
attr interpolationmode none
attr source packetSent
attr title "packets sent, vector(packetBytes)"
vector 63 TEST.N4.wlan[0].mac rcvdPkFromHl:vector(packetBytes) ETV
attr interpolationmode none
attr source packetReceivedFromUpper
attr title "packets received from higher layer, vector(packetBytes)"
vector 64 TEST.N4.wlan[0].mac.queue packetPushed:vector(packetBytes) ETV
attr interpolationmode none
attr title "packet pushed, vector(packetBytes)"
vector 65 TEST.N4.wlan[0].mac.queue queueLength:vector ETV
attr interpolationmode sample-hold
attr source "count(packetPushed) - count(packetPopped) - count(packetRemoved) - count(packetDropped)"
attr title "queue length, vector"
vector 66 TEST.N4.wlan[0].mac.queue packetPopped:vector(packetBytes) ETV
attr interpolationmode none
attr title "packet popped, vector(packetBytes)"
vector 67 TEST.N4.wlan[0].mac.queue queueingTime:vector ETV
attr interpolationmode none
attr source queueingTime(packetPopped)
attr title "queueing times, vector"
attr unit s
vector 68 TEST.N4.wlan[0].mac sentDownPk:vector(packetBytes) ETV
attr interpolationmode none
attr source packetSentToLower
attr title "packets sent to lower layer, vector(packetBytes)"
vector 69 TEST.N1.wlan[0].mac rcvdPkFromLl:vector(packetBytes) ETV
attr interpolationmode none
attr source packetReceivedFromLower
attr title "packets received from lower layer, vector(packetBytes)"
vector 70 TEST.N1.wlan[0].mac passedUpPk:vector(packetBytes) ETV
attr interpolationmode none
attr source packetSentToUpper
attr title "packets passed to higher layer, vector(packetBytes)"
vector 71 TEST.N1.udp packetReceived:vector(packetBytes) ETV
attr interpolationmode none
attr source packetReceived
attr title "packets received, vector(packetBytes)"
vector 72 TEST.N1.udp passedUpPk:vector(count) ETV
attr interpolationmode none
attr source packetSentToUpper
attr title "packets passed up, vector(count)"
vector 73 TEST.N5.udp packetSent:vector(packetBytes) ETV
attr interpolationmode none
attr source packetSent
attr title "packets sent, vector(packetBytes)"
vector 74 TEST.N5.wlan[0].mac rcvdPkFromHl:vector(packetBytes) ETV
attr interpolationmode none
attr source packetReceivedFromUpper
attr title "packets received from higher layer, vector(packetBytes)"
vector 75 TEST.N5.wlan[0].mac.queue packetPushed:vector(packetBytes) ETV
attr interpolationmode none
attr title "packet pushed, vector(packetBytes)"
vector 76 TEST.N5.wlan[0].mac.queue queueLength:vector ETV
attr interpolationmode sample-hold
attr source "count(packetPushed) - count(packetPopped) - count(packetRemoved) - count(packetDropped)"
attr title "queue length, vector"
vector 77 TEST.N5.wlan[0].mac.queue packetPopped:vector(packetBytes) ETV
attr interpolationmode none
attr title "packet popped, vector(packetBytes)"
vector 78 TEST.N5.wlan[0].mac.queue queueingTime:vector ETV
attr interpolationmode none
attr source queueingTime(packetPopped)
attr title "queueing times, vector"
attr unit s
vector 79 TEST.N5.wlan[0].mac sentDownPk:vector(packetBytes) ETV
attr interpolationmode none
attr source packetSentToLower
attr title "packets sent to lower layer, vector(packetBytes)"
vector 80 TEST.N3.wlan[0].mac rcvdPkFromLl:vector(packetBytes) ETV
attr interpolationmode none
attr source packetReceivedFromLower
attr title "packets received from lower layer, vector(packetBytes)"
vector 81 TEST.N3.wlan[0].mac passedUpPk:vector(packetBytes) ETV
attr interpolationmode none
attr source packetSentToUpper
attr title "packets passed to higher layer, vector(packetBytes)"
vector 82 TEST.N3.udp packetReceived:vector(packetBytes) ETV
attr interpolationmode none
attr source packetReceived
attr title "packets received, vector(packetBytes)"
vector 83 TEST.N3.udp passedUpPk:vector(count) ETV
attr interpolationmode none
attr source packetSentToUpper
attr title "packets passed up, vector(count)"
vector 84 TEST.N5.ipv4.arp arpReplySent:vector(packetBytes) ETV
attr source arpReplySent
attr title "ARP replies sent, vector(packetBytes)"
vector 85 TEST.sender0.wlan[0].mac packetDropNotAddressedToUs:vector(packetBytes) ETV
attr interpolationmode none
attr source packetDropReasonIsNotAddressedToUs(packetDropped)
attr title "packet drop: not addressed to us, vector(packetBytes)"
vector 86 TEST.N1.wlan[0].mac packetDropNotAddressedToUs:vector(packetBytes) ETV
attr interpolationmode none
attr source packetDropReasonIsNotAddressedToUs(packetDropped)
attr title "packet drop: not addressed to us, vector(packetBytes)"
vector 87 TEST.N3.wlan[0].mac packetDropNotAddressedToUs:vector(packetBytes) ETV
attr interpolationmode none
attr source packetDropReasonIsNotAddressedToUs(packetDropped)
attr title "packet drop: not addressed to us, vector(packetBytes)"
vector 88 TEST.N3.udp packetSent:vector(packetBytes) ETV
attr interpolationmode none
attr source packetSent
attr title "packets sent, vector(packetBytes)"
vector 89 TEST.N3.wlan[0].mac rcvdPkFromHl:vector(packetBytes) ETV
attr interpolationmode none
attr source packetReceivedFromUpper
attr title "packets received from higher layer, vector(packetBytes)"
vector 90 TEST.N3.wlan[0].mac.queue packetPushed:vector(packetBytes) ETV
attr interpolationmode none
attr title "packet pushed, vector(packetBytes)"
vector 91 TEST.N3.wlan[0].mac.queue queueLength:vector ETV
attr interpolationmode sample-hold
attr source "count(packetPushed) - count(packetPopped) - count(packetRemoved) - count(packetDropped)"
attr title "queue length, vector"
vector 92 TEST.N3.wlan[0].mac.queue packetPopped:vector(packetBytes) ETV
attr interpolationmode none
attr title "packet popped, vector(packetBytes)"
vector 93 TEST.N3.wlan[0].mac.queue queueingTime:vector ETV
attr interpolationmode none
attr source queueingTime(packetPopped)
attr title "queueing times, vector"
attr unit s
vector 94 TEST.N3.wlan[0].mac sentDownPk:vector(packetBytes) ETV
attr interpolationmode none
attr source packetSentToLower
attr title "packets sent to lower layer, vector(packetBytes)"
vector 95 TEST.N2.wlan[0].mac rcvdPkFromLl:vector(packetBytes) ETV
attr interpolationmode none
attr source packetReceivedFromLower
attr title "packets received from lower layer, vector(packetBytes)"
vector 96 TEST.N2.wlan[0].mac passedUpPk:vector(packetBytes) ETV
attr interpolationmode none
attr source packetSentToUpper
attr title "packets passed to higher layer, vector(packetBytes)"
vector 97 TEST.N2.udp packetReceived:vector(packetBytes) ETV
attr interpolationmode none
attr source packetReceived
attr title "packets received, vector(packetBytes)"
vector 98 TEST.N2.udp passedUpPk:vector(count) ETV
attr interpolationmode none
attr source packetSentToUpper
attr title "packets passed up, vector(count)"
vector 99 TEST.N1.udp packetSent:vector(packetBytes) ETV
attr interpolationmode none
attr source packetSent
attr title "packets sent, vector(packetBytes)"
vector 100 TEST.N1.wlan[0].mac rcvdPkFromHl:vector(packetBytes) ETV
attr interpolationmode none
attr source packetReceivedFromUpper
attr title "packets received from higher layer, vector(packetBytes)"
vector 101 TEST.N1.wlan[0].mac.queue packetPushed:vector(packetBytes) ETV
attr interpolationmode none
attr title "packet pushed, vector(packetBytes)"
vector 102 TEST.N1.wlan[0].mac.queue queueLength:vector ETV
attr interpolationmode sample-hold
attr source "count(packetPushed) - count(packetPopped) - count(packetRemoved) - count(packetDropped)"
attr title "queue length, vector"
vector 103 TEST.N1.wlan[0].mac.queue packetPopped:vector(packetBytes) ETV
attr interpolationmode none
attr title "packet popped, vector(packetBytes)"
vector 104 TEST.N1.wlan[0].mac.queue queueingTime:vector ETV
attr interpolationmode none
attr source queueingTime(packetPopped)
attr title "queueing times, vector"
attr unit s
vector 105 TEST.N1.wlan[0].mac sentDownPk:vector(packetBytes) ETV
attr interpolationmode none
attr source packetSentToLower
attr title "packets sent to lower layer, vector(packetBytes)"
vector 106 TEST.N2.udp packetSent:vector(packetBytes) ETV
attr interpolationmode none
attr source packetSent
attr title "packets sent, vector(packetBytes)"
vector 107 TEST.N2.wlan[0].mac rcvdPkFromHl:vector(packetBytes) ETV
attr interpolationmode none
attr source packetReceivedFromUpper
attr title "packets received from higher layer, vector(packetBytes)"
vector 108 TEST.N2.wlan[0].mac.queue packetPushed:vector(packetBytes) ETV
attr interpolationmode none
attr title "packet pushed, vector(packetBytes)"
vector 109 TEST.N2.wlan[0].mac.queue queueLength:vector ETV
attr interpolationmode sample-hold
attr source "count(packetPushed) - count(packetPopped) - count(packetRemoved) - count(packetDropped)"
attr title "queue length, vector"
vector 110 TEST.N2.wlan[0].mac.queue packetPopped:vector(packetBytes) ETV
attr interpolationmode none
attr title "packet popped, vector(packetBytes)"
vector 111 TEST.N2.wlan[0].mac.queue queueingTime:vector ETV
attr interpolationmode none
attr source queueingTime(packetPopped)
attr title "queueing times, vector"
attr unit s
vector 112 TEST.N2.wlan[0].mac sentDownPk:vector(packetBytes) ETV
attr interpolationmode none
attr source packetSentToLower
attr title "packets sent to lower layer, vector(packetBytes)"
vector 113 TEST.ntu_Attacker_Blackhole.wlan[0].mac rcvdPkFromLl:vector(packetBytes) ETV
attr interpolationmode none
attr source packetReceivedFromLower
attr title "packets received from lower layer, vector(packetBytes)"
vector 114 TEST.ntu_Attacker_Blackhole.wlan[0].mac passedUpPk:vector(packetBytes) ETV
attr interpolationmode none
attr source packetSentToUpper
attr title "packets passed to higher layer, vector(packetBytes)"
vector 115 TEST.ntu_Attacker_Blackhole.udp packetReceived:vector(packetBytes) ETV
attr interpolationmode none
attr source packetReceived
attr title "packets received, vector(packetBytes)"
vector 116 TEST.ntu_Attacker_Blackhole.udp passedUpPk:vector(count) ETV
attr interpolationmode none
attr source packetSentToUpper
attr title "packets passed up, vector(count)"
vector 117 TEST.ntu_Attacker_Blackhole.udp packetSent:vector(packetBytes) ETV
attr interpolationmode none
attr source packetSent
attr title "packets sent, vector(packetBytes)"
vector 118 TEST.ntu_Attacker_Blackhole.ipv4.arp arpRequestSent:vector(packetBytes) ETV
attr source arpRequestSent
attr title "ARP request sent, vector(packetBytes)"
vector 119 TEST.ntu_Attacker_Blackhole.wlan[0].mac rcvdPkFromHl:vector(packetBytes) ETV
attr interpolationmode none
attr source packetReceivedFromUpper
attr title "packets received from higher layer, vector(packetBytes)"
vector 120 TEST.ntu_Attacker_Blackhole.wlan[0].mac.queue packetPushed:vector(packetBytes) ETV
attr interpolationmode none
attr title "packet pushed, vector(packetBytes)"
vector 121 TEST.ntu_Attacker_Blackhole.wlan[0].mac.queue queueLength:vector ETV
attr interpolationmode sample-hold
attr source "count(packetPushed) - count(packetPopped) - count(packetRemoved) - count(packetDropped)"
attr title "queue length, vector"
vector 122 TEST.ntu_Attacker_Blackhole.wlan[0].mac.queue packetPopped:vector(packetBytes) ETV
attr interpolationmode none
attr title "packet popped, vector(packetBytes)"
vector 123 TEST.ntu_Attacker_Blackhole.wlan[0].mac.queue queueingTime:vector ETV
attr interpolationmode none
attr source queueingTime(packetPopped)
attr title "queueing times, vector"
attr unit s
vector 124 TEST.ntu_Attacker_Blackhole.wlan[0].mac sentDownPk:vector(packetBytes) ETV
attr interpolationmode none
attr source packetSentToLower
attr title "packets sent to lower layer, vector(packetBytes)"
vector 125 TEST.receiver.wlan[0].mac rcvdPkFromLl:vector(packetBytes) ETV
attr interpolationmode none
attr source packetReceivedFromLower
attr title "packets received from lower layer, vector(packetBytes)"
vector 126 TEST.receiver.wlan[0].mac passedUpPk:vector(packetBytes) ETV
attr interpolationmode none
attr source packetSentToUpper
attr title "packets passed to higher layer, vector(packetBytes)"
vector 127 TEST.receiver.udp packetReceived:vector(packetBytes) ETV
attr interpolationmode none
attr source packetReceived
attr title "packets received, vector(packetBytes)"
vector 128 TEST.receiver.udp passedUpPk:vector(count) ETV
attr interpolationmode none
attr source packetSentToUpper
attr title "packets passed up, vector(count)"
vector 129 TEST.receiver.udp packetSent:vector(packetBytes) ETV
attr interpolationmode none
attr source packetSent
attr title "packets sent, vector(packetBytes)"
vector 130 TEST.receiver.ipv4.arp arpRequestSent:vector(packetBytes) ETV
attr source arpRequestSent
attr title "ARP request sent, vector(packetBytes)"
vector 131 TEST.receiver.wlan[0].mac rcvdPkFromHl:vector(packetBytes) ETV
attr interpolationmode none
attr source packetReceivedFromUpper
attr title "packets received from higher layer, vector(packetBytes)"
vector 132 TEST.receiver.wlan[0].mac.queue packetPushed:vector(packetBytes) ETV
attr interpolationmode none
attr title "packet pushed, vector(packetBytes)"
vector 133 TEST.receiver.wlan[0].mac.queue queueLength:vector ETV
attr interpolationmode sample-hold
attr source "count(packetPushed) - count(packetPopped) - count(packetRemoved) - count(packetDropped)"
attr title "queue length, vector"
vector 134 TEST.receiver.wlan[0].mac.queue packetPopped:vector(packetBytes) ETV
attr interpolationmode none
attr title "packet popped, vector(packetBytes)"
vector 135 TEST.receiver.wlan[0].mac.queue queueingTime:vector ETV
attr interpolationmode none
attr source queueingTime(packetPopped)
attr title "queueing times, vector"
attr unit s
vector 136 TEST.receiver.wlan[0].mac sentDownPk:vector(packetBytes) ETV
attr interpolationmode none
attr source packetSentToLower
attr title "packets sent to lower layer, vector(packetBytes)"
vector 137 TEST.N2.ipv4.arp arpReplySent:vector(packetBytes) ETV
attr source arpReplySent
attr title "ARP replies sent, vector(packetBytes)"
vector 138 TEST.receiver.wlan[0].mac packetDropNotAddressedToUs:vector(packetBytes) ETV
attr interpolationmode none
attr source packetDropReasonIsNotAddressedToUs(packetDropped)
attr title "packet drop: not addressed to us, vector(packetBytes)"
vector 139 TEST.ntu_Attacker_Blackhole.wlan[0].mac packetDropNotAddressedToUs:vector(packetBytes) ETV
attr interpolationmode none
attr source packetDropReasonIsNotAddressedToUs(packetDropped)
attr title "packet drop: not addressed to us, vector(packetBytes)"
vector 140 TEST.N2.ipv4.arp arpRequestSent:vector(packetBytes) ETV
attr source arpRequestSent
attr title "ARP request sent, vector(packetBytes)"
vector 141 TEST.N1.ipv4.arp arpReplySent:vector(packetBytes) ETV
attr source arpReplySent
attr title "ARP replies sent, vector(packetBytes)"
vector 142 TEST.N1.ipv4.arp arpRequestSent:vector(packetBytes) ETV
attr source arpRequestSent
attr title "ARP request sent, vector(packetBytes)"
vector 143 TEST.N4.ipv4.arp arpReplySent:vector(packetBytes) ETV
attr source arpReplySent
attr title "ARP replies sent, vector(packetBytes)"
vector 144 TEST.N2.wlan[0].mac packetDropNotAddressedToUs:vector(packetBytes) ETV
attr interpolationmode none
attr source packetDropReasonIsNotAddressedToUs(packetDropped)
attr title "packet drop: not addressed to us, vector(packetBytes)"
vector 145 TEST.N4.ipv4.arp arpRequestSent:vector(packetBytes) ETV
attr source arpRequestSent
attr title "ARP request sent, vector(packetBytes)"
vector 146 TEST.ntu_Attacker_Blackhole1.wlan[0].mac packetDropNotAddressedToUs:vector(packetBytes) ETV
attr interpolationmode none
attr source packetDropReasonIsNotAddressedToUs(packetDropped)
attr title "packet drop: not addressed to us, vector(packetBytes)"
vector 147 TEST.receiver.app[0] packetReceived:vector(packetBytes) ETV
attr interpolationmode none
attr source packetReceived
attr title "packets received, vector(packetBytes)"
vector 148 TEST.receiver.app[0] throughput:vector ETV
attr source throughput(packetReceived)
attr title "throughput, vector"
attr unit bps
vector 149 TEST.receiver.app[0] endToEndDelay:vector ETV
attr interpolationmode none
attr source dataAge(packetReceived)
attr title "end-to-end delay, vector"
attr unit s
vector 150 TEST.receiver.app[0] rcvdPkSeqNo:vector ETV
attr interpolationmode none
attr source appPkSeqNo(packetReceived)
attr title "received packet sequence number, vector"
vector 151 TEST.sender0.ipv4.arp arpRequestSent:vector(packetBytes) ETV
attr source arpRequestSent
attr title "ARP request sent, vector(packetBytes)"
vector 152 TEST.receiver.ipv4.arp arpReplySent:vector(packetBytes) ETV
attr source arpReplySent
attr title "ARP replies sent, vector(packetBytes)"
vector 153 TEST.sender0.app[0] throughput:vector ETV
attr source throughput(packetReceived)
attr title "throughput, vector"
attr unit bps
0	0	0	0
0	0	0	0
0	0	0	4
1	0	0	0
1	0	0	0
1	0	0	4
2	0	0	0
2	0	0	0
2	0	0	4
3	0	0	0
3	0	0	0
3	0	0	4
4	0	0	0
4	0	0	0
4	0	0	4
5	0	0	0
5	0	0	0
5	0	0	4
6	0	0	0
6	0	0	0
6	0	0	4
7	0	0	0
7	0	0	0
7	0	0	4
8	0	0	0
8	0	0	0
8	0	0	4
9	0	0	1
9	143	0.0068890848	3
9	160	0.0072370848	1
9	176	0.00753450394	3
9	189	0.00788250394	1
9	260	0.326087184877	3
9	273	0.326435184877	1
9	320	0.326688198847	3
9	334	0.326940198847	1
9	377	0.327652459844	3
9	394	0.328000459844	1
9	409	0.328553861182	3
9	418	0.328901861182	1
9	481	0.332020309136	3
9	490	0.332368309136	1
9	553	0.332621176966	3
9	573	0.332873176966	1
9	665	0.805500294009	3
9	695	0.805848294009	2
9	707	0.806114358763	1
9	795	0.807968381292	3
9	804	0.808316381292	1
9	861	0.810573626093	3
9	870	0.810921626093	1
9	931	1.332621206294	3
9	945	1.332873206294	1
9	1011	1.334569384925	3
9	1020	1.334821384925	1
9	1060	1.335074234303	3
9	1071	1.335406234303	1
9	1091	1.335455759638	3
9	1100	1.335787759638	1
9	1149	1.338047605467	3
9	1160	1.338299605467	1
9	1231	1.342693494705	3
9	1250	1.342945494705	1
9	1280	1.343198278885	3
9	1303	1.343530278885	1
9	1313	1.343530670975	3
9	1334	1.343862670975	1
9	1362	1.347783063065	3
9	1394	1.352035063065	1
9	1411	1.352035585868	3
9	1444	1.356287585868	1
9	1455	1.356287912443	3
9	1479	1.360539912443	1
9	1504	1.360540435246	3
9	1518	1.364792435246	1
9	1571	2.004252914893	3
9	1586	2.008504914893	1
9	1618	2.012757764271	3
9	1630	2.017009764271	1
9	1683	3.004252914893	3
9	1698	3.008504914893	1
9	1730	3.012757764271	3
9	1742	3.017009764271	1
9	1810	4.004252914893	3
9	1825	4.008504914893	1
9	1857	4.012757764271	3
9	1869	4.017009764271	1
9	1922	5.004252914893	3
9	1937	5.008504914893	1
9	1969	5.012757764271	3
9	1981	5.017009764271	1
9	2037	6.004252914893	3
9	2053	6.008504914893	1
9	2086	6.012757764271	3
9	2098	6.017009764271	1
9	2156	7.004252914893	3
9	2171	7.008504914893	1
9	2203	7.012757764271	3
9	2215	7.017009764271	1
9	2270	8.004252914893	3
9	2286	8.008504914893	1
9	2319	8.012757764271	3
9	2331	8.017009764271	1
9	2384	9.004252914893	3
9	2399	9.008504914893	1
9	2431	9.012757764271	3
9	2443	9.017009764271	1
9	2498	10.004252914893	3
9	2514	10.008504914893	1
9	2547	10.012757764271	3
9	2559	10.017009764271	1
9	2612	11.004252914893	3
9	2627	11.008504914893	1
9	2659	11.012757764271	3
9	2671	11.017009764271	1
9	2726	12.004252914893	3
9	2742	12.008504914893	1
9	2775	12.012757764271	3
9	2787	12.017009764271	1
9	2840	13.004252914893	3
9	2855	13.008504914893	1
9	2887	13.012757764271	3
9	2899	13.017009764271	1
9	2954	14.004252914893	3
9	2970	14.008504914893	1
9	3003	14.012757764271	3
9	3015	14.017009764271	1
9	3068	15.004252914893	3
9	3083	15.008504914893	1
9	3115	15.012757764271	3
9	3127	15.017009764271	1
9	3182	16.004252914893	3
9	3198	16.008504914893	1
9	3231	16.012757764271	3
9	3243	16.017009764271	1
9	3296	17.004252914893	3
9	3311	17.008504914893	1
9	3343	17.012757764271	3
9	3355	17.017009764271	1
9	3410	18.004252914893	3
9	3426	18.008504914893	1
9	3459	18.012757764271	3
9	3471	18.017009764271	1
9	3538	19.004252914893	3
9	3553	19.008504914893	1
9	3585	19.012757764271	3
9	3597	19.017009764271	1
9	3650	20.004252914893	3
9	3665	20.008504914893	1
9	3697	20.012757764271	3
9	3709	20.017009764271	1
9	3764	21.004252914893	3
9	3780	21.008504914893	1
9	3813	21.012757764271	3
9	3825	21.017009764271	1
9	3883	22.004252914893	3
9	3898	22.008504914893	1
9	3930	22.012757764271	3
9	3942	22.017009764271	1
9	3997	23.004252914893	3
9	4013	23.008504914893	1
9	4046	23.012757764271	3
9	4058	23.017009764271	1
9	4111	24.004252914893	3
9	4126	24.008504914893	1
9	4158	24.012757764271	3
9	4170	24.017009764271	1
9	4225	25.004252914893	3
9	4241	25.008504914893	1
9	4274	25.012757764271	3
9	4286	25.017009764271	1
9	4339	26.004252914893	3
9	4354	26.008504914893	1
9	4386	26.012757764271	3
9	4398	26.017009764271	1
9	4453	27.004252914893	3
9	4469	27.008504914893	1
9	4502	27.012757764271	3
9	4514	27.017009764271	1
9	4567	28.004252914893	3
9	4582	28.008504914893	1
9	4614	28.012757764271	3
9	4626	28.017009764271	1
9	4681	29.004252914893	3
9	4697	29.008504914893	1
9	4730	29.012757764271	3
9	4742	29.017009764271	1
9	4795	30.004252914893	3
9	4810	30.008504914893	1
9	4842	30.012757764271	3
9	4854	30.017009764271	1
9	4909	31.004252914893	3
9	4925	31.008504914893	1
9	4958	31.012757764271	3
9	4970	31.017009764271	1
9	5023	32.004252914893	3
9	5038	32.008504914893	1
9	5070	32.012757764271	3
9	5082	32.017009764271	1
9	5137	33.004252914893	3
9	5153	33.008504914893	1
9	5186	33.012757764271	3
9	5198	33.017009764271	1
9	5251	34.004252914893	3
9	5266	34.008504914893	1
9	5298	34.012757764271	3
9	5310	34.017009764271	1
9	5365	35.004252914893	3
9	5381	35.008504914893	1
9	5414	35.012757764271	3
9	5426	35.017009764271	1
9	5479	36.004252914893	3
9	5494	36.008504914893	1
9	5526	36.012757764271	3
9	5538	36.017009764271	1
9	5593	37.004252914893	3
9	5609	37.008504914893	1
9	5642	37.012757764271	3
9	5654	37.017009764271	1
9	5707	38.004252914893	3
9	5722	38.008504914893	1
9	5754	38.012757764271	3
9	5766	38.017009764271	1
9	5821	39.004252914893	3
9	5837	39.008504914893	1
9	5870	39.012757764271	3
9	5882	39.017009764271	1
9	5935	40.004252914893	3
9	5950	40.008504914893	1
9	5982	40.012757764271	3
9	5994	40.017009764271	1
9	6049	41.004252914893	3
9	6065	41.008504914893	1
9	6098	41.012757764271	3
9	6110	41.017009764271	1
9	6163	42.004252914893	3
9	6178	42.008504914893	1
9	6210	42.012757764271	3
9	6222	42.017009764271	1
9	6277	43.004252914893	3
9	6293	43.008504914893	1
9	6326	43.012757764271	3
9	6338	43.017009764271	1
9	6391	44.004252914893	3
9	6406	44.008504914893	1
9	6438	44.012757764271	3
9	6450	44.017009764271	1
9	6505	45.004252914893	3
9	6521	45.008504914893	1
9	6554	45.012757764271	3
9	6566	45.017009764271	1
9	6619	46.004252914893	3
9	6634	46.008504914893	1
9	6666	46.012757764271	3
9	6678	46.017009764271	1
9	6733	47.004252914893	3
9	6749	47.008504914893	1
9	6782	47.012757764271	3
9	6794	47.017009764271	1
9	6847	48.004252914893	3
9	6862	48.008504914893	1
9	6894	48.012757764271	3
9	6906	48.017009764271	1
9	6961	49.004252914893	3
9	6977	49.008504914893	1
9	7010	49.012757764271	3
9	7022	49.017009764271	1
9	7075	50.004252914893	3
9	7090	50.008504914893	1
9	7122	50.012757764271	3
9	7134	50.017009764271	1
9	7189	51.004252914893	3
9	7205	51.008504914893	1
9	7238	51.012757764271	3
9	7250	51.017009764271	1
9	7303	52.004252914893	3
9	7318	52.008504914893	1
9	7350	52.012757764271	3
9	7362	52.017009764271	1
9	7417	53.004252914893	3
9	7433	53.008504914893	1
9	7466	53.012757764271	3
9	7478	53.017009764271	1
9	7531	54.004252914893	3
9	7546	54.008504914893	1
9	7578	54.012757764271	3
9	7590	54.017009764271	1
9	7645	55.004252914893	3
9	7661	55.008504914893	1
9	7694	55.012757764271	3
9	7706	55.017009764271	1
9	7759	56.004252914893	3
9	7774	56.008504914893	1
9	7806	56.012757764271	3
9	7818	56.017009764271	1
9	7873	57.004252914893	3
9	7889	57.008504914893	1
9	7922	57.012757764271	3
9	7934	57.017009764271	1
9	7987	58.004252914893	3
9	8002	58.008504914893	1
9	8034	58.012757764271	3
9	8046	58.017009764271	1
9	8101	59.004252914893	3
9	8117	59.008504914893	1
9	8150	59.012757764271	3
9	8162	59.017009764271	1
9	8215	60.004252914893	3
9	8230	60.008504914893	1
9	8262	60.012757764271	3
9	8274	60.017009764271	1
9	8329	61.004252914893	3
9	8345	61.008504914893	1
9	8378	61.012757764271	3
9	8390	61.017009764271	1
9	8443	62.004252914893	3
9	8458	62.008504914893	1
9	8490	62.012757764271	3
9	8502	62.017009764271	1
9	8557	63.004252914893	3
9	8573	63.008504914893	1
9	8606	63.012757764271	3
9	8618	63.017009764271	1
9	8671	64.004252914893	3
9	8686	64.008504914893	1
9	8718	64.012757764271	3
9	8730	64.017009764271	1
9	8785	65.004252914893	3
9	8801	65.008504914893	1
9	8834	65.012757764271	3
9	8846	65.017009764271	1
9	8899	66.004252914893	3
9	8914	66.008504914893	1
9	8946	66.012757764271	3
9	8958	66.017009764271	1
9	9013	67.004252914893	3
9	9029	67.008504914893	1
9	9062	67.012757764271	3
9	9074	67.017009764271	1
9	9127	68.004252914893	3
9	9142	68.008504914893	1
9	9174	68.012757764271	3
9	9186	68.017009764271	1
9	9241	69.004252914893	3
9	9257	69.008504914893	1
9	9290	69.012757764271	3
9	9302	69.017009764271	1
9	9355	70.004252914893	3
9	9370	70.008504914893	1
9	9402	70.012757764271	3
9	9414	70.017009764271	1
9	9469	71.004252914893	3
9	9485	71.008504914893	1
9	9518	71.012757764271	3
9	9530	71.017009764271	1
9	9583	72.004252914893	3
9	9598	72.008504914893	1
9	9630	72.012757764271	3
9	9642	72.017009764271	1
9	9697	73.004252914893	3
9	9713	73.008504914893	1
9	9746	73.012757764271	3
9	9758	73.017009764271	1
9	9811	74.004252914893	3
9	9826	74.008504914893	1
9	9858	74.012757764271	3
9	9870	74.017009764271	1
9	9925	75.004252914893	3
9	9941	75.008504914893	1
9	9974	75.012757764271	3
9	9986	75.017009764271	1
9	10039	76.004252914893	3
9	10054	76.008504914893	1
9	10086	76.012757764271	3
9	10098	76.017009764271	1
9	10153	77.004252914893	3
9	10169	77.008504914893	1
9	10202	77.012757764271	3
9	10214	77.017009764271	1
9	10267	78.004252914893	3
9	10282	78.008504914893	1
9	10314	78.012757764271	3
9	10326	78.017009764271	1
9	10381	79.004252914893	3
9	10397	79.008504914893	1
9	10430	79.012757764271	3
9	10442	79.017009764271	1
9	10495	80.004252914893	3
9	10510	80.008504914893	1
9	10542	80.012757764271	3
9	10554	80.017009764271	1
9	10609	81.004252914893	3
9	10625	81.008504914893	1
9	10658	81.012757764271	3
9	10670	81.017009764271	1
9	10723	82.004252914893	3
9	10738	82.008504914893	1
9	10770	82.012757764271	3
9	10782	82.017009764271	1
9	10837	83.004252914893	3
9	10853	83.008504914893	1
9	10886	83.012757764271	3
9	10898	83.017009764271	1
9	10951	84.004252914893	3
9	10966	84.008504914893	1
9	10998	84.012757764271	3
9	11010	84.017009764271	1
9	11065	85.004252914893	3
9	11081	85.008504914893	1
9	11114	85.012757764271	3
9	11126	85.017009764271	1
9	11179	86.004252914893	3
9	11194	86.008504914893	1
9	11226	86.012757764271	3
9	11238	86.017009764271	1
9	11293	87.004252914893	3
9	11309	87.008504914893	1
9	11342	87.012757764271	3
9	11354	87.017009764271	1
9	11407	88.004252914893	3
9	11422	88.008504914893	1
9	11454	88.012757764271	3
9	11466	88.017009764271	1
9	11521	89.004252914893	3
9	11537	89.008504914893	1
9	11570	89.012757764271	3
9	11582	89.017009764271	1
9	11635	90.004252914893	3
9	11650	90.008504914893	1
9	11682	90.012757764271	3
9	11694	90.017009764271	1
9	11749	91.004252914893	3
9	11765	91.008504914893	1
9	11798	91.012757764271	3
9	11810	91.017009764271	1
9	11863	92.004252914893	3
9	11878	92.008504914893	1
9	11910	92.012757764271	3
9	11922	92.017009764271	1
9	11977	93.004252914893	3
9	11993	93.008504914893	1
9	12026	93.012757764271	3
9	12038	93.017009764271	1
9	12091	94.004252914893	3
9	12106	94.008504914893	1
9	12138	94.012757764271	3
9	12150	94.017009764271	1
9	12205	95.004252914893	3
9	12221	95.008504914893	1
9	12254	95.012757764271	3
9	12266	95.017009764271	1
9	12319	96.004252914893	3
9	12334	96.008504914893	1
9	12366	96.012757764271	3
9	12378	96.017009764271	1
9	12433	97.004252914893	3
9	12449	97.008504914893	1
9	12482	97.012757764271	3
9	12494	97.017009764271	1
9	12547	98.004252914893	3
9	12562	98.008504914893	1
9	12594	98.012757764271	3
9	12606	98.017009764271	1
9	12661	99.004252914893	3
9	12677	99.008504914893	1
9	12710	99.012757764271	3
9	12722	99.017009764271	1
9	12775	100.004252914893	3
9	12790	100.008504914893	1
9	12822	100.012757764271	3
9	12834	100.017009764271	1
9	12889	101.004252914893	3
9	12905	101.008504914893	1
9	12938	101.012757764271	3
9	12950	101.017009764271	1
9	13003	102.004252914893	3
9	13018	102.008504914893	1
9	13050	102.012757764271	3
9	13062	102.017009764271	1
9	13117	103.004252914893	3
9	13133	103.008504914893	1
9	13166	103.012757764271	3
9	13178	103.017009764271	1
9	13231	104.004252914893	3
9	13246	104.008504914893	1
9	13278	104.012757764271	3
9	13290	104.017009764271	1
9	13345	105.004252914893	3
9	13361	105.008504914893	1
9	13394	105.012757764271	3
9	13406	105.017009764271	1
9	13459	106.004252914893	3
9	13474	106.008504914893	1
9	13506	106.012757764271	3
9	13518	106.017009764271	1
9	13573	107.004252914893	3
9	13589	107.008504914893	1
9	13622	107.012757764271	3
9	13634	107.017009764271	1
9	13687	108.004252914893	3
9	13702	108.008504914893	1
9	13734	108.012757764271	3
9	13746	108.017009764271	1
9	13801	109.004252914893	3
9	13817	109.008504914893	1
9	13850	109.012757764271	3
9	13862	109.017009764271	1
9	13915	110.004252914893	3
9	13930	110.008504914893	1
9	13962	110.012757764271	3
9	13974	110.017009764271	1
9	14029	111.004252914893	3
9	14045	111.008504914893	1
9	14078	111.012757764271	3
9	14090	111.017009764271	1
9	14143	112.004252914893	3
9	14158	112.008504914893	1
9	14190	112.012757764271	3
9	14202	112.017009764271	1
9	14257	113.004252914893	3
9	14273	113.008504914893	1
9	14306	113.012757764271	3
9	14318	113.017009764271	1
9	14371	114.004252914893	3
9	14386	114.008504914893	1
9	14418	114.012757764271	3
9	14430	114.017009764271	1
9	14485	115.004252914893	3
9	14501	115.008504914893	1
9	14534	115.012757764271	3
9	14546	115.017009764271	1
9	14599	116.004252914893	3
9	14614	116.008504914893	1
9	14646	116.012757764271	3
9	14658	116.017009764271	1
9	14713	117.004252914893	3
9	14729	117.008504914893	1
9	14762	117.012757764271	3
9	14774	117.017009764271	1
9	14827	118.004252914893	3
9	14842	118.008504914893	1
9	14874	118.012757764271	3
9	14886	118.017009764271	1
9	14941	119.004252914893	3
9	14957	119.008504914893	1
9	14990	119.012757764271	3
9	15002	119.017009764271	1
9	15055	120.004252914893	3
9	15070	120.008504914893	1
9	15102	120.012757764271	3
9	15114	120.017009764271	1
9	15169	121.004252914893	3
9	15185	121.008504914893	1
9	15218	121.012757764271	3
9	15230	121.017009764271	1
9	15285	122.000252914893	3
9	15303	122.000504914893	1
9	15331	122.004757699073	3
9	15348	122.005009699073	1
9	15384	122.005262744679	3
9	15395	122.009514744679	1
9	15430	122.009767594057	3
9	15441	122.010019594057	1
9	15480	122.014272443435	3
9	15491	122.014524443435	1
9	15527	122.014777340593	3
9	15543	122.019029340593	1
9	15602	123.004252914893	3
9	15618	123.008504914893	1
9	15651	123.012757764271	3
9	15663	123.017009764271	1
9	15716	124.004252914893	3
9	15731	124.008504914893	1
9	15763	124.012757764271	3
9	15775	124.017009764271	1
9	15829	125.004252914893	3
9	15845	125.008504914893	1
9	15878	125.012757764271	3
9	15891	125.017009764271	1
9	15944	126.004252914893	3
9	15959	126.008504914893	1
9	15991	126.012757764271	3
9	16003	126.017009764271	1
9	16057	127.004252914893	3
9	16072	127.008504914893	1
9	16104	127.012757764271	3
9	16116	127.017009764271	1
9	16170	128.004252914893	3
9	16186	128.008504914893	1
9	16219	128.012757764271	3
9	16231	128.017009764271	1
9	16285	129.004252914893	3
9	16300	129.008504914893	1
9	16332	129.012757764271	3
9	16344	129.017009764271	1
9	16398	130.004252914893	3
9	16414	130.008504914893	1
9	16447	130.012757764271	3
9	16459	130.017009764271	1
9	16513	131.004252914893	3
9	16528	131.008504914893	1
9	16560	131.012757764271	3
9	16572	131.017009764271	1
9	16626	132.004252914893	3
9	16642	132.008504914893	1
9	16675	132.012757764271	3
9	16687	132.017009764271	1
9	16741	133.004252914893	3
9	16756	133.008504914893	1
9	16788	133.012757764271	3
9	16800	133.017009764271	1
9	16854	134.004252914893	3
9	16870	134.008504914893	1
9	16903	134.012757764271	3
9	16915	134.017009764271	1
9	16969	135.004252914893	3
9	16984	135.008504914893	1
9	17016	135.012757764271	3
9	17028	135.017009764271	1
9	17082	136.004252914893	3
9	17098	136.008504914893	1
9	17131	136.012757764271	3
9	17143	136.017009764271	1
9	17197	137.004252914893	3
9	17212	137.008504914893	1
9	17244	137.012757764271	3
9	17256	137.017009764271	1
9	17310	138.004252914893	3
9	17326	138.008504914893	1
9	17359	138.012757764271	3
9	17371	138.017009764271	1
9	17425	139.004252914893	3
9	17440	139.008504914893	1
9	17472	139.012757764271	3
9	17484	139.017009764271	1
9	17538	140.004252914893	3
9	17554	140.008504914893	1
9	17587	140.012757764271	3
9	17599	140.017009764271	1
9	17653	141.004252914893	3
9	17668	141.008504914893	1
9	17700	141.012757764271	3
9	17712	141.017009764271	1
9	17766	142.004252914893	3
9	17782	142.008504914893	1
9	17815	142.012757764271	3
9	17827	142.017009764271	1
9	17881	143.004252914893	3
9	17896	143.008504914893	1
9	17928	143.012757764271	3
9	17940	143.017009764271	1
9	17994	144.004252914893	3
9	18010	144.008504914893	1
9	18043	144.012757764271	3
9	18055	144.017009764271	1
9	18109	145.004252914893	3
9	18124	145.008504914893	1
9	18156	145.012757764271	3
9	18168	145.017009764271	1
9	18222	146.004252914893	3
9	18238	146.008504914893	1
9	18271	146.012757764271	3
9	18283	146.017009764271	1
9	18337	147.004252914893	3
9	18352	147.008504914893	1
9	18384	147.012757764271	3
9	18396	147.017009764271	1
9	18450	148.004252914893	3
9	18466	148.008504914893	1
9	18499	148.012757764271	3
9	18511	148.017009764271	1
9	18565	149.004252914893	3
9	18580	149.008504914893	1
9	18612	149.012757764271	3
9	18624	149.017009764271	1
9	18678	150.004252914893	3
9	18694	150.008504914893	1
9	18727	150.012757764271	3
9	18739	150.017009764271	1
9	18793	151.004252914893	3
9	18808	151.008504914893	1
9	18840	151.012757764271	3
9	18852	151.017009764271	1
9	18906	152.004252914893	3
9	18922	152.008504914893	1
9	18955	152.012757764271	3
9	18967	152.017009764271	1
9	19021	153.004252914893	3
9	19036	153.008504914893	1
9	19068	153.012757764271	3
9	19080	153.017009764271	1
9	19134	154.004252914893	3
9	19150	154.008504914893	1
9	19183	154.012757764271	3
9	19195	154.017009764271	1
9	19249	155.004252914893	3
9	19264	155.008504914893	1
9	19296	155.012757764271	3
9	19308	155.017009764271	1
9	19362	156.004252914893	3
9	19378	156.008504914893	1
9	19411	156.012757764271	3
9	19423	156.017009764271	1
9	19477	157.004252914893	3
9	19492	157.008504914893	1
9	19524	157.012757764271	3
9	19536	157.017009764271	1
9	19590	158.004252914893	3
9	19606	158.008504914893	1
9	19639	158.012757764271	3
9	19651	158.017009764271	1
9	19705	159.004252914893	3
9	19720	159.008504914893	1
9	19752	159.012757764271	3
9	19764	159.017009764271	1
9	19818	160.004252914893	3
9	19834	160.008504914893	1
9	19867	160.012757764271	3
9	19879	160.017009764271	1
9	19933	161.004252914893	3
9	19948	161.008504914893	1
9	19980	161.012757764271	3
9	19992	161.017009764271	1
9	20046	162.004252914893	3
9	20062	162.008504914893	1
9	20095	162.012757764271	3
9	20107	162.017009764271	1
9	20161	163.004252914893	3
9	20176	163.008504914893	1
9	20208	163.012757764271	3
9	20220	163.017009764271	1
9	20274	164.004252914893	3
9	20290	164.008504914893	1
9	20323	164.012757764271	3
9	20335	164.017009764271	1
9	20389	165.004252914893	3
9	20404	165.008504914893	1
9	20436	165.012757764271	3
9	20448	165.017009764271	1
9	20502	166.004252914893	3
9	20518	166.008504914893	1
9	20551	166.012757764271	3
9	20563	166.017009764271	1
9	20617	167.004252914893	3
9	20632	167.008504914893	1
9	20664	167.012757764271	3
9	20676	167.017009764271	1
9	20730	168.004252914893	3
9	20746	168.008504914893	1
9	20779	168.012757764271	3
9	20791	168.017009764271	1
9	20845	169.004252914893	3
9	20860	169.008504914893	1
9	20892	169.012757764271	3
9	20904	169.017009764271	1
9	20958	170.004252914893	3
9	20974	170.008504914893	1
9	21007	170.012757764271	3
9	21019	170.017009764271	1
9	21073	171.004252914893	3
9	21088	171.008504914893	1
9	21120	171.012757764271	3
9	21132	171.017009764271	1
9	21186	172.004252914893	3
9	21202	172.008504914893	1
9	21235	172.012757764271	3
9	21247	172.017009764271	1
9	21301	173.004252914893	3
9	21316	173.008504914893	1
9	21348	173.012757764271	3
9	21360	173.017009764271	1
9	21414	174.004252914893	3
9	21430	174.008504914893	1
9	21463	174.012757764271	3
9	21475	174.017009764271	1
9	21529	175.004252914893	3
9	21544	175.008504914893	1
9	21576	175.012757764271	3
9	21588	175.017009764271	1
9	21642	176.004252914893	3
9	21658	176.008504914893	1
9	21691	176.012757764271	3
9	21703	176.017009764271	1
9	21757	177.004252914893	3
9	21772	177.008504914893	1
9	21804	177.012757764271	3
9	21816	177.017009764271	1
9	21870	178.004252914893	3
9	21886	178.008504914893	1
9	21919	178.012757764271	3
9	21931	178.017009764271	1
9	21985	179.004252914893	3
9	22000	179.008504914893	1
9	22032	179.012757764271	3
9	22044	179.017009764271	1
9	22098	180.004252914893	3
9	22114	180.008504914893	1
9	22147	180.012757764271	3
9	22159	180.017009764271	1
9	22213	181.004252914893	3
9	22228	181.008504914893	1
9	22260	181.012757764271	3
9	22272	181.017009764271	1
9	22326	182.004252914893	3
9	22342	182.008504914893	1
9	22375	182.012757764271	3
9	22387	182.017009764271	1
9	22441	183.004252914893	3
9	22456	183.008504914893	1
9	22488	183.012757764271	3
9	22500	183.017009764271	1
9	22554	184.004252914893	3
9	22570	184.008504914893	1
9	22603	184.012757764271	3
9	22615	184.017009764271	1
9	22669	185.004252914893	3
9	22684	185.008504914893	1
9	22716	185.012757764271	3
9	22728	185.017009764271	1
9	22782	186.004252914893	3
9	22798	186.008504914893	1
9	22831	186.012757764271	3
9	22843	186.017009764271	1
9	22897	187.004252914893	3
9	22912	187.008504914893	1
9	22944	187.012757764271	3
9	22956	187.017009764271	1
9	23010	188.004252914893	3
9	23026	188.008504914893	1
9	23059	188.012757764271	3
9	23071	188.017009764271	1
9	23125	189.004252914893	3
9	23140	189.008504914893	1
9	23172	189.012757764271	3
9	23184	189.017009764271	1
9	23238	190.004252914893	3
9	23254	190.008504914893	1
9	23287	190.012757764271	3
9	23299	190.017009764271	1
9	23353	191.004252914893	3
9	23368	191.008504914893	1
9	23400	191.012757764271	3
9	23412	191.017009764271	1
9	23466	192.004252914893	3
9	23482	192.008504914893	1
9	23515	192.012757764271	3
9	23527	192.017009764271	1
9	23581	193.004252914893	3
9	23596	193.008504914893	1
9	23628	193.012757764271	3
9	23640	193.017009764271	1
9	23694	194.004252914893	3
9	23710	194.008504914893	1
9	23743	194.012757764271	3
9	23755	194.017009764271	1
9	23809	195.004252914893	3
9	23824	195.008504914893	1
9	23856	195.012757764271	3
9	23868	195.017009764271	1
9	23922	196.004252914893	3
9	23938	196.008504914893	1
9	23971	196.012757764271	3
9	23983	196.017009764271	1
9	24037	197.004252914893	3
9	24052	197.008504914893	1
9	24084	197.012757764271	3
9	24096	197.017009764271	1
9	24150	198.004252914893	3
9	24166	198.008504914893	1
9	24199	198.012757764271	3
9	24211	198.017009764271	1
9	24265	199.004252914893	3
9	24280	199.008504914893	1
9	24312	199.012757764271	3
9	24324	199.017009764271	1
10	0	0	1
10	442	0.330671443563	2
10	451	0.331019443563	1
10	756	0.807335967035	2
10	765	0.807683967035	1
10	1024	1.334821384925	2
10	1046	1.335073384925	1
10	1119	1.337794559861	2
10	1128	1.338046559861	1
10	1164	1.338299605467	2
10	1178	1.338631605467	1
10	1198	1.339746384805	2
10	1207	1.340078384805	1
10	1399	1.352035063065	2
10	1431	1.356287063065	1
10	1450	1.356287585868	2
10	1478	1.360539585868	1
10	1590	2.008504914893	2
10	1604	2.012756914893	1
10	1702	3.008504914893	2
10	1716	3.012756914893	1
10	1829	4.008504914893	2
10	1843	4.012756914893	1
10	1941	5.008504914893	2
10	1955	5.012756914893	1
10	2057	6.008504914893	2
10	2071	6.012756914893	1
10	2175	7.008504914893	2
10	2189	7.012756914893	1
10	2290	8.008504914893	2
10	2304	8.012756914893	1
10	2403	9.008504914893	2
10	2417	9.012756914893	1
10	2518	10.008504914893	2
10	2532	10.012756914893	1
10	2631	11.008504914893	2
10	2645	11.012756914893	1
10	2746	12.008504914893	2
10	2760	12.012756914893	1
10	2859	13.008504914893	2
10	2873	13.012756914893	1
10	2974	14.008504914893	2
10	2988	14.012756914893	1
10	3087	15.008504914893	2
10	3101	15.012756914893	1
10	3202	16.008504914893	2
10	3216	16.012756914893	1
10	3315	17.008504914893	2
10	3329	17.012756914893	1
10	3430	18.008504914893	2
10	3444	18.012756914893	1
10	3557	19.008504914893	2
10	3571	19.012756914893	1
10	3669	20.008504914893	2
10	3683	20.012756914893	1
10	3784	21.008504914893	2
10	3798	21.012756914893	1
10	3902	22.008504914893	2
10	3916	22.012756914893	1
10	4017	23.008504914893	2
10	4031	23.012756914893	1
10	4130	24.008504914893	2
10	4144	24.012756914893	1
10	4245	25.008504914893	2
10	4259	25.012756914893	1
10	4358	26.008504914893	2
10	4372	26.012756914893	1
10	4473	27.008504914893	2
10	4487	27.012756914893	1
10	4586	28.008504914893	2
10	4600	28.012756914893	1
10	4701	29.008504914893	2
10	4715	29.012756914893	1
10	4814	30.008504914893	2
10	4828	30.012756914893	1
10	4929	31.008504914893	2
10	4943	31.012756914893	1
10	5042	32.008504914893	2
10	5056	32.012756914893	1
10	5157	33.008504914893	2
10	5171	33.012756914893	1
10	5270	34.008504914893	2
10	5284	34.012756914893	1
10	5385	35.008504914893	2
10	5399	35.012756914893	1
10	5498	36.008504914893	2
10	5512	36.012756914893	1
10	5613	37.008504914893	2
10	5627	37.012756914893	1
10	5726	38.008504914893	2
10	5740	38.012756914893	1
10	5841	39.008504914893	2
10	5855	39.012756914893	1
10	5954	40.008504914893	2
10	5968	40.012756914893	1
10	6069	41.008504914893	2
10	6083	41.012756914893	1
10	6182	42.008504914893	2
10	6196	42.012756914893	1
10	6297	43.008504914893	2
10	6311	43.012756914893	1
10	6410	44.008504914893	2
10	6424	44.012756914893	1
10	6525	45.008504914893	2
10	6539	45.012756914893	1
10	6638	46.008504914893	2
10	6652	46.012756914893	1
10	6753	47.008504914893	2
10	6767	47.012756914893	1
10	6866	48.008504914893	2
10	6880	48.012756914893	1
10	6981	49.008504914893	2
10	6995	49.012756914893	1
10	7094	50.008504914893	2
10	7108	50.012756914893	1
10	7209	51.008504914893	2
10	7223	51.012756914893	1
10	7322	52.008504914893	2
10	7336	52.012756914893	1
10	7437	53.008504914893	2
10	7451	53.012756914893	1
10	7550	54.008504914893	2
10	7564	54.012756914893	1
10	7665	55.008504914893	2
10	7679	55.012756914893	1
10	7778	56.008504914893	2
10	7792	56.012756914893	1
10	7893	57.008504914893	2
10	7907	57.012756914893	1
10	8006	58.008504914893	2
10	8020	58.012756914893	1
10	8121	59.008504914893	2
10	8135	59.012756914893	1
10	8234	60.008504914893	2
10	8248	60.012756914893	1
10	8349	61.008504914893	2
10	8363	61.012756914893	1
10	8462	62.008504914893	2
10	8476	62.012756914893	1
10	8577	63.008504914893	2
10	8591	63.012756914893	1
10	8690	64.008504914893	2
10	8704	64.012756914893	1
10	8805	65.008504914893	2
10	8819	65.012756914893	1
10	8918	66.008504914893	2
10	8932	66.012756914893	1
10	9033	67.008504914893	2
10	9047	67.012756914893	1
10	9146	68.008504914893	2
10	9160	68.012756914893	1
10	9261	69.008504914893	2
10	9275	69.012756914893	1
10	9374	70.008504914893	2
10	9388	70.012756914893	1
10	9489	71.008504914893	2
10	9503	71.012756914893	1
10	9602	72.008504914893	2
10	9616	72.012756914893	1
10	9717	73.008504914893	2
10	9731	73.012756914893	1
10	9830	74.008504914893	2
10	9844	74.012756914893	1
10	9945	75.008504914893	2
10	9959	75.012756914893	1
10	10058	76.008504914893	2
10	10072	76.012756914893	1
10	10173	77.008504914893	2
10	10187	77.012756914893	1
10	10286	78.008504914893	2
10	10300	78.012756914893	1
10	10401	79.008504914893	2
10	10415	79.012756914893	1
10	10514	80.008504914893	2
10	10528	80.012756914893	1
10	10629	81.008504914893	2
10	10643	81.012756914893	1
10	10742	82.008504914893	2
10	10756	82.012756914893	1
10	10857	83.008504914893	2
10	10871	83.012756914893	1
10	10970	84.008504914893	2
10	10984	84.012756914893	1
10	11085	85.008504914893	2
10	11099	85.012756914893	1
10	11198	86.008504914893	2
10	11212	86.012756914893	1
10	11313	87.008504914893	2
10	11327	87.012756914893	1
10	11426	88.008504914893	2
10	11440	88.012756914893	1
10	11541	89.008504914893	2
10	11555	89.012756914893	1
10	11654	90.008504914893	2
10	11668	90.012756914893	1
10	11769	91.008504914893	2
10	11783	91.012756914893	1
10	11882	92.008504914893	2
10	11896	92.012756914893	1
10	11997	93.008504914893	2
10	12011	93.012756914893	1
10	12110	94.008504914893	2
10	12124	94.012756914893	1
10	12225	95.008504914893	2
10	12239	95.012756914893	1
10	12338	96.008504914893	2
10	12352	96.012756914893	1
10	12453	97.008504914893	2
10	12467	97.012756914893	1
10	12566	98.008504914893	2
10	12580	98.012756914893	1
10	12681	99.008504914893	2
10	12695	99.012756914893	1
10	12794	100.008504914893	2
10	12808	100.012756914893	1
10	12909	101.008504914893	2
10	12923	101.012756914893	1
10	13022	102.008504914893	2
10	13036	102.012756914893	1
10	13137	103.008504914893	2
10	13151	103.012756914893	1
10	13250	104.008504914893	2
10	13264	104.012756914893	1
10	13365	105.008504914893	2
10	13379	105.012756914893	1
10	13478	106.008504914893	2
10	13492	106.012756914893	1
10	13593	107.008504914893	2
10	13607	107.012756914893	1
10	13706	108.008504914893	2
10	13720	108.012756914893	1
10	13821	109.008504914893	2
10	13835	109.012756914893	1
10	13934	110.008504914893	2
10	13948	110.012756914893	1
10	14049	111.008504914893	2
10	14063	111.012756914893	1
10	14162	112.008504914893	2
10	14176	112.012756914893	1
10	14277	113.008504914893	2
10	14291	113.012756914893	1
10	14390	114.008504914893	2
10	14404	114.012756914893	1
10	14505	115.008504914893	2
10	14519	115.012756914893	1
10	14618	116.008504914893	2
10	14632	116.012756914893	1
10	14733	117.008504914893	2
10	14747	117.012756914893	1
10	14846	118.008504914893	2
10	14860	118.012756914893	1
10	14961	119.008504914893	2
10	14975	119.012756914893	1
10	15074	120.008504914893	2
10	15088	120.012756914893	1
10	15189	121.008504914893	2
10	15203	121.012756914893	1
10	15352	122.005009699073	2
10	15366	122.005261699073	1
10	15399	122.009514744679	2
10	15413	122.009766744679	1
10	15445	122.010019594057	2
10	15466	122.014271594057	1
10	15622	123.008504914893	2
10	15636	123.012756914893	1
10	15735	124.008504914893	2
10	15749	124.012756914893	1
10	15849	125.008504914893	2
10	15864	125.012756914893	1
10	15963	126.008504914893	2
10	15977	126.012756914893	1
10	16076	127.008504914893	2
10	16090	127.012756914893	1
10	16190	128.008504914893	2
10	16204	128.012756914893	1
10	16304	129.008504914893	2
10	16318	129.012756914893	1
10	16418	130.008504914893	2
10	16432	130.012756914893	1
10	16532	131.008504914893	2
10	16546	131.012756914893	1
10	16646	132.008504914893	2
10	16660	132.012756914893	1
10	16760	133.008504914893	2
10	16774	133.012756914893	1
10	16874	134.008504914893	2
10	16888	134.012756914893	1
10	16988	135.008504914893	2
10	17002	135.012756914893	1
10	17102	136.008504914893	2
10	17116	136.012756914893	1
10	17216	137.008504914893	2
10	17230	137.012756914893	1
10	17330	138.008504914893	2
10	17344	138.012756914893	1
10	17444	139.008504914893	2
10	17458	139.012756914893	1
10	17558	140.008504914893	2
10	17572	140.012756914893	1
10	17672	141.008504914893	2
10	17686	141.012756914893	1
10	17786	142.008504914893	2
10	17800	142.012756914893	1
10	17900	143.008504914893	2
10	17914	143.012756914893	1
10	18014	144.008504914893	2
10	18028	144.012756914893	1
10	18128	145.008504914893	2
10	18142	145.012756914893	1
10	18242	146.008504914893	2
10	18256	146.012756914893	1
10	18356	147.008504914893	2
10	18370	147.012756914893	1
10	18470	148.008504914893	2
10	18484	148.012756914893	1
10	18584	149.008504914893	2
10	18598	149.012756914893	1
10	18698	150.008504914893	2
10	18712	150.012756914893	1
10	18812	151.008504914893	2
10	18826	151.012756914893	1
10	18926	152.008504914893	2
10	18940	152.012756914893	1
10	19040	153.008504914893	2
10	19054	153.012756914893	1
10	19154	154.008504914893	2
10	19168	154.012756914893	1
10	19268	155.008504914893	2
10	19282	155.012756914893	1
10	19382	156.008504914893	2
10	19396	156.012756914893	1
10	19496	157.008504914893	2
10	19510	157.012756914893	1
10	19610	158.008504914893	2
10	19624	158.012756914893	1
10	19724	159.008504914893	2
10	19738	159.012756914893	1
10	19838	160.008504914893	2
10	19852	160.012756914893	1
10	19952	161.008504914893	2
10	19966	161.012756914893	1
10	20066	162.008504914893	2
10	20080	162.012756914893	1
10	20180	163.008504914893	2
10	20194	163.012756914893	1
10	20294	164.008504914893	2
10	20308	164.012756914893	1
10	20408	165.008504914893	2
10	20422	165.012756914893	1
10	20522	166.008504914893	2
10	20536	166.012756914893	1
10	20636	167.008504914893	2
10	20650	167.012756914893	1
10	20750	168.008504914893	2
10	20764	168.012756914893	1
10	20864	169.008504914893	2
10	20878	169.012756914893	1
10	20978	170.008504914893	2
10	20992	170.012756914893	1
10	21092	171.008504914893	2
10	21106	171.012756914893	1
10	21206	172.008504914893	2
10	21220	172.012756914893	1
10	21320	173.008504914893	2
10	21334	173.012756914893	1
10	21434	174.008504914893	2
10	21448	174.012756914893	1
10	21548	175.008504914893	2
10	21562	175.012756914893	1
10	21662	176.008504914893	2
10	21676	176.012756914893	1
10	21776	177.008504914893	2
10	21790	177.012756914893	1
10	21890	178.008504914893	2
10	21904	178.012756914893	1
10	22004	179.008504914893	2
10	22018	179.012756914893	1
10	22118	180.008504914893	2
10	22132	180.012756914893	1
10	22232	181.008504914893	2
10	22246	181.012756914893	1
10	22346	182.008504914893	2
10	22360	182.012756914893	1
10	22460	183.008504914893	2
10	22474	183.012756914893	1
10	22574	184.008504914893	2
10	22588	184.012756914893	1
10	22688	185.008504914893	2
10	22702	185.012756914893	1
10	22802	186.008504914893	2
10	22816	186.012756914893	1
10	22916	187.008504914893	2
10	22930	187.012756914893	1
10	23030	188.008504914893	2
10	23044	188.012756914893	1
10	23144	189.008504914893	2
10	23158	189.012756914893	1
10	23258	190.008504914893	2
10	23272	190.012756914893	1
10	23372	191.008504914893	2
10	23386	191.012756914893	1
10	23486	192.008504914893	2
10	23500	192.012756914893	1
10	23600	193.008504914893	2
10	23614	193.012756914893	1
10	23714	194.008504914893	2
10	23728	194.012756914893	1
10	23828	195.008504914893	2
10	23842	195.012756914893	1
10	23942	196.008504914893	2
10	23956	196.012756914893	1
10	24056	197.008504914893	2
10	24070	197.012756914893	1
10	24170	198.008504914893	2
10	24184	198.012756914893	1
10	24284	199.008504914893	2
10	24298	199.012756914893	1
11	0	0	1
11	411	0.328554065965	3
11	428	0.328902065965	1
11	444	0.330671868252	3
11	457	0.331019868252	1
11	518	0.332368752277	3
11	540	0.332620752277	2
11	545	0.332620781605	1
11	584	0.332873620107	3
11	597	0.333205620107	1
11	758	0.807336391724	3
11	771	0.807684391724	1
11	830	0.808316824433	3
11	843	0.808648824433	1
11	863	0.810573830876	3
11	880	0.810921830876	1
11	913	1.332368781605	3
11	922	1.332620781605	1
11	958	1.332873678763	3
11	970	1.333205678763	1
11	980	1.333206127342	3
11	993	1.333538127342	1
11	1035	1.334821809614	3
11	1049	1.335073809614	1
11	1121	1.33779498455	3
11	1132	1.33804698455	1
11	1169	1.338300030156	3
11	1181	1.338632030156	1
11	1200	1.339746809494	3
11	1210	1.340078809494	1
11	1406	1.352035487754	3
11	1436	1.356287487754	1
11	1461	1.356288010557	3
11	1490	1.360540010557	1
11	1595	2.008505339582	3
11	1607	2.012757339582	1
11	1707	3.008505339582	3
11	1719	3.012757339582	1
11	1834	4.008505339582	3
11	1846	4.012757339582	1
11	1946	5.008505339582	3
11	1958	5.012757339582	1
11	2062	6.008505339582	3
11	2075	6.012757339582	1
11	2180	7.008505339582	3
11	2192	7.012757339582	1
11	2295	8.008505339582	3
11	2308	8.012757339582	1
11	2408	9.008505339582	3
11	2420	9.012757339582	1
11	2523	10.008505339582	3
11	2536	10.012757339582	1
11	2636	11.008505339582	3
11	2648	11.012757339582	1
11	2751	12.008505339582	3
11	2764	12.012757339582	1
11	2864	13.008505339582	3
11	2876	13.012757339582	1
11	2979	14.008505339582	3
11	2992	14.012757339582	1
11	3092	15.008505339582	3
11	3104	15.012757339582	1
11	3207	16.008505339582	3
11	3220	16.012757339582	1
11	3320	17.008505339582	3
11	3332	17.012757339582	1
11	3435	18.008505339582	3
11	3448	18.012757339582	1
11	3562	19.008505339582	3
11	3574	19.012757339582	1
11	3674	20.008505339582	3
11	3686	20.012757339582	1
11	3789	21.008505339582	3
11	3802	21.012757339582	1
11	3907	22.008505339582	3
11	3919	22.012757339582	1
11	4022	23.008505339582	3
11	4035	23.012757339582	1
11	4135	24.008505339582	3
11	4147	24.012757339582	1
11	4250	25.008505339582	3
11	4263	25.012757339582	1
11	4363	26.008505339582	3
11	4375	26.012757339582	1
11	4478	27.008505339582	3
11	4491	27.012757339582	1
11	4591	28.008505339582	3
11	4603	28.012757339582	1
11	4706	29.008505339582	3
11	4719	29.012757339582	1
11	4819	30.008505339582	3
11	4831	30.012757339582	1
11	4934	31.008505339582	3
11	4947	31.012757339582	1
11	5047	32.008505339582	3
11	5059	32.012757339582	1
11	5162	33.008505339582	3
11	5175	33.012757339582	1
11	5275	34.008505339582	3
11	5287	34.012757339582	1
11	5390	35.008505339582	3
11	5403	35.012757339582	1
11	5503	36.008505339582	3
11	5515	36.012757339582	1
11	5618	37.008505339582	3
11	5631	37.012757339582	1
11	5731	38.008505339582	3
11	5743	38.012757339582	1
11	5846	39.008505339582	3
11	5859	39.012757339582	1
11	5959	40.008505339582	3
11	5971	40.012757339582	1
11	6074	41.008505339582	3
11	6087	41.012757339582	1
11	6187	42.008505339582	3
11	6199	42.012757339582	1
11	6302	43.008505339582	3
11	6315	43.012757339582	1
11	6415	44.008505339582	3
11	6427	44.012757339582	1
11	6530	45.008505339582	3
11	6543	45.012757339582	1
11	6643	46.008505339582	3
11	6655	46.012757339582	1
11	6758	47.008505339582	3
11	6771	47.012757339582	1
11	6871	48.008505339582	3
11	6883	48.012757339582	1
11	6986	49.008505339582	3
11	6999	49.012757339582	1
11	7099	50.008505339582	3
11	7111	50.012757339582	1
11	7214	51.008505339582	3
11	7227	51.012757339582	1
11	7327	52.008505339582	3
11	7339	52.012757339582	1
11	7442	53.008505339582	3
11	7455	53.012757339582	1
11	7555	54.008505339582	3
11	7567	54.012757339582	1
11	7670	55.008505339582	3
11	7683	55.012757339582	1
11	7783	56.008505339582	3
11	7795	56.012757339582	1
11	7898	57.008505339582	3
11	7911	57.012757339582	1
11	8011	58.008505339582	3
11	8023	58.012757339582	1
11	8126	59.008505339582	3
11	8139	59.012757339582	1
11	8239	60.008505339582	3
11	8251	60.012757339582	1
11	8354	61.008505339582	3
11	8367	61.012757339582	1
11	8467	62.008505339582	3
11	8479	62.012757339582	1
11	8582	63.008505339582	3
11	8595	63.012757339582	1
11	8695	64.008505339582	3
11	8707	64.012757339582	1
11	8810	65.008505339582	3
11	8823	65.012757339582	1
11	8923	66.008505339582	3
11	8935	66.012757339582	1
11	9038	67.008505339582	3
11	9051	67.012757339582	1
11	9151	68.008505339582	3
11	9163	68.012757339582	1
11	9266	69.008505339582	3
11	9279	69.012757339582	1
11	9379	70.008505339582	3
11	9391	70.012757339582	1
11	9494	71.008505339582	3
11	9507	71.012757339582	1
11	9607	72.008505339582	3
11	9619	72.012757339582	1
11	9722	73.008505339582	3
11	9735	73.012757339582	1
11	9835	74.008505339582	3
11	9847	74.012757339582	1
11	9950	75.008505339582	3
11	9963	75.012757339582	1
11	10063	76.008505339582	3
11	10075	76.012757339582	1
11	10178	77.008505339582	3
11	10191	77.012757339582	1
11	10291	78.008505339582	3
11	10303	78.012757339582	1
11	10406	79.008505339582	3
11	10419	79.012757339582	1
11	10519	80.008505339582	3
11	10531	80.012757339582	1
11	10634	81.008505339582	3
11	10647	81.012757339582	1
11	10747	82.008505339582	3
11	10759	82.012757339582	1
11	10862	83.008505339582	3
11	10875	83.012757339582	1
11	10975	84.008505339582	3
11	10987	84.012757339582	1
11	11090	85.008505339582	3
11	11103	85.012757339582	1
11	11203	86.008505339582	3
11	11215	86.012757339582	1
11	11318	87.008505339582	3
11	11331	87.012757339582	1
11	11431	88.008505339582	3
11	11443	88.012757339582	1
11	11546	89.008505339582	3
11	11559	89.012757339582	1
11	11659	90.008505339582	3
11	11671	90.012757339582	1
11	11774	91.008505339582	3
11	11787	91.012757339582	1
11	11887	92.008505339582	3
11	11899	92.012757339582	1
11	12002	93.008505339582	3
11	12015	93.012757339582	1
11	12115	94.008505339582	3
11	12127	94.012757339582	1
11	12230	95.008505339582	3
11	12243	95.012757339582	1
11	12343	96.008505339582	3
11	12355	96.012757339582	1
11	12458	97.008505339582	3
11	12471	97.012757339582	1
11	12571	98.008505339582	3
11	12583	98.012757339582	1
11	12686	99.008505339582	3
11	12699	99.012757339582	1
11	12799	100.008505339582	3
11	12811	100.012757339582	1
11	12914	101.008505339582	3
11	12927	101.012757339582	1
11	13027	102.008505339582	3
11	13039	102.012757339582	1
11	13142	103.008505339582	3
11	13155	103.012757339582	1
11	13255	104.008505339582	3
11	13267	104.012757339582	1
11	13370	105.008505339582	3
11	13383	105.012757339582	1
11	13483	106.008505339582	3
11	13495	106.012757339582	1
11	13598	107.008505339582	3
11	13611	107.012757339582	1
11	13711	108.008505339582	3
11	13723	108.012757339582	1
11	13826	109.008505339582	3
11	13839	109.012757339582	1
11	13939	110.008505339582	3
11	13951	110.012757339582	1
11	14054	111.008505339582	3
11	14067	111.012757339582	1
11	14167	112.008505339582	3
11	14179	112.012757339582	1
11	14282	113.008505339582	3
11	14295	113.012757339582	1
11	14395	114.008505339582	3
11	14407	114.012757339582	1
11	14510	115.008505339582	3
11	14523	115.012757339582	1
11	14623	116.008505339582	3
11	14635	116.012757339582	1
11	14738	117.008505339582	3
11	14751	117.012757339582	1
11	14851	118.008505339582	3
11	14863	118.012757339582	1
11	14966	119.008505339582	3
11	14979	119.012757339582	1
11	15079	120.008505339582	3
11	15091	120.012757339582	1
11	15194	121.008505339582	3
11	15207	121.012757339582	1
11	15357	122.005010123762	3
11	15369	122.005262123762	1
11	15404	122.009515169368	3
11	15417	122.009767169368	1
11	15453	122.010020018746	3
11	15469	122.014272018746	1
11	15506	122.014524915904	3
11	15519	122.014776915904	1
11	15627	123.008505339582	3
11	15640	123.012757339582	1
11	15740	124.008505339582	3
11	15752	124.012757339582	1
11	15854	125.008505339582	3
11	15867	125.012757339582	1
11	15968	126.008505339582	3
11	15980	126.012757339582	1
11	16081	127.008505339582	3
11	16093	127.012757339582	1
11	16195	128.008505339582	3
11	16208	128.012757339582	1
11	16309	129.008505339582	3
11	16321	129.012757339582	1
11	16423	130.008505339582	3
11	16436	130.012757339582	1
11	16537	131.008505339582	3
11	16549	131.012757339582	1
11	16651	132.008505339582	3
11	16664	132.012757339582	1
11	16765	133.008505339582	3
11	16777	133.012757339582	1
11	16879	134.008505339582	3
11	16892	134.012757339582	1
11	16993	135.008505339582	3
11	17005	135.012757339582	1
11	17107	136.008505339582	3
11	17120	136.012757339582	1
11	17221	137.008505339582	3
11	17233	137.012757339582	1
11	17335	138.008505339582	3
11	17348	138.012757339582	1
11	17449	139.008505339582	3
11	17461	139.012757339582	1
11	17563	140.008505339582	3
11	17576	140.012757339582	1
11	17677	141.008505339582	3
11	17689	141.012757339582	1
11	17791	142.008505339582	3
11	17804	142.012757339582	1
11	17905	143.008505339582	3
11	17917	143.012757339582	1
11	18019	144.008505339582	3
11	18032	144.012757339582	1
11	18133	145.008505339582	3
11	18145	145.012757339582	1
11	18247	146.008505339582	3
11	18260	146.012757339582	1
11	18361	147.008505339582	3
11	18373	147.012757339582	1
11	18475	148.008505339582	3
11	18488	148.012757339582	1
11	18589	149.008505339582	3
11	18601	149.012757339582	1
11	18703	150.008505339582	3
11	18716	150.012757339582	1
11	18817	151.008505339582	3
11	18829	151.012757339582	1
11	18931	152.008505339582	3
11	18944	152.012757339582	1
11	19045	153.008505339582	3
11	19057	153.012757339582	1
11	19159	154.008505339582	3
11	19172	154.012757339582	1
11	19273	155.008505339582	3
11	19285	155.012757339582	1
11	19387	156.008505339582	3
11	19400	156.012757339582	1
11	19501	157.008505339582	3
11	19513	157.012757339582	1
11	19615	158.008505339582	3
11	19628	158.012757339582	1
11	19729	159.008505339582	3
11	19741	159.012757339582	1
11	19843	160.008505339582	3
11	19856	160.012757339582	1
11	19957	161.008505339582	3
11	19969	161.012757339582	1
11	20071	162.008505339582	3
11	20084	162.012757339582	1
11	20185	163.008505339582	3
11	20197	163.012757339582	1
11	20299	164.008505339582	3
11	20312	164.012757339582	1
11	20413	165.008505339582	3
11	20425	165.012757339582	1
11	20527	166.008505339582	3
11	20540	166.012757339582	1
11	20641	167.008505339582	3
11	20653	167.012757339582	1
11	20755	168.008505339582	3
11	20768	168.012757339582	1
11	20869	169.008505339582	3
11	20881	169.012757339582	1
11	20983	170.008505339582	3
11	20996	170.012757339582	1
11	21097	171.008505339582	3
11	21109	171.012757339582	1
11	21211	172.008505339582	3
11	21224	172.012757339582	1
11	21325	173.008505339582	3
11	21337	173.012757339582	1
11	21439	174.008505339582	3
11	21452	174.012757339582	1
11	21553	175.008505339582	3
11	21565	175.012757339582	1
11	21667	176.008505339582	3
11	21680	176.012757339582	1
11	21781	177.008505339582	3
11	21793	177.012757339582	1
11	21895	178.008505339582	3
11	21908	178.012757339582	1
11	22009	179.008505339582	3
11	22021	179.012757339582	1
11	22123	180.008505339582	3
11	22136	180.012757339582	1
11	22237	181.008505339582	3
11	22249	181.012757339582	1
11	22351	182.008505339582	3
11	22364	182.012757339582	1
11	22465	183.008505339582	3
11	22477	183.012757339582	1
11	22579	184.008505339582	3
11	22592	184.012757339582	1
11	22693	185.008505339582	3
11	22705	185.012757339582	1
11	22807	186.008505339582	3
11	22820	186.012757339582	1
11	22921	187.008505339582	3
11	22933	187.012757339582	1
11	23035	188.008505339582	3
11	23048	188.012757339582	1
11	23149	189.008505339582	3
11	23161	189.012757339582	1
11	23263	190.008505339582	3
11	23276	190.012757339582	1
11	23377	191.008505339582	3
11	23389	191.012757339582	1
11	23491	192.008505339582	3
11	23504	192.012757339582	1
11	23605	193.008505339582	3
11	23617	193.012757339582	1
11	23719	194.008505339582	3
11	23732	194.012757339582	1
11	23833	195.008505339582	3
11	23845	195.012757339582	1
11	23947	196.008505339582	3
11	23960	196.012757339582	1
11	24061	197.008505339582	3
11	24073	197.012757339582	1
11	24175	198.008505339582	3
11	24188	198.012757339582	1
11	24289	199.008505339582	3
11	24301	199.012757339582	1
12	0	0	1
12	480	0.332019884447	2
12	489	0.332367884447	1
12	544	0.332620752277	2
12	572	0.332872752277	1
12	794	0.807967956603	2
12	803	0.808315956603	1
12	926	1.332620781605	2
12	944	1.332872781605	1
12	1010	1.334568960236	2
12	1019	1.334820960236	1
12	1053	1.335073809614	2
12	1070	1.335405809614	1
12	1090	1.335455334949	2
12	1099	1.335787334949	1
12	1440	1.356287487754	2
12	1477	1.360539487754	1
12	1494	1.360540010557	2
12	1517	1.364792010557	1
12	1611	2.012757339582	2
12	1629	2.017009339582	1
12	1723	3.012757339582	2
12	1741	3.017009339582	1
12	1850	4.012757339582	2
12	1868	4.017009339582	1
12	1962	5.012757339582	2
12	1980	5.017009339582	1
12	2079	6.012757339582	2
12	2097	6.017009339582	1
12	2196	7.012757339582	2
12	2214	7.017009339582	1
12	2312	8.012757339582	2
12	2330	8.017009339582	1
12	2424	9.012757339582	2
12	2442	9.017009339582	1
12	2540	10.012757339582	2
12	2558	10.017009339582	1
12	2652	11.012757339582	2
12	2670	11.017009339582	1
12	2768	12.012757339582	2
12	2786	12.017009339582	1
12	2880	13.012757339582	2
12	2898	13.017009339582	1
12	2996	14.012757339582	2
12	3014	14.017009339582	1
12	3108	15.012757339582	2
12	3126	15.017009339582	1
12	3224	16.012757339582	2
12	3242	16.017009339582	1
12	3336	17.012757339582	2
12	3354	17.017009339582	1
12	3452	18.012757339582	2
12	3470	18.017009339582	1
12	3578	19.012757339582	2
12	3596	19.017009339582	1
12	3690	20.012757339582	2
12	3708	20.017009339582	1
12	3806	21.012757339582	2
12	3824	21.017009339582	1
12	3923	22.012757339582	2
12	3941	22.017009339582	1
12	4039	23.012757339582	2
12	4057	23.017009339582	1
12	4151	24.012757339582	2
12	4169	24.017009339582	1
12	4267	25.012757339582	2
12	4285	25.017009339582	1
12	4379	26.012757339582	2
12	4397	26.017009339582	1
12	4495	27.012757339582	2
12	4513	27.017009339582	1
12	4607	28.012757339582	2
12	4625	28.017009339582	1
12	4723	29.012757339582	2
12	4741	29.017009339582	1
12	4835	30.012757339582	2
12	4853	30.017009339582	1
12	4951	31.012757339582	2
12	4969	31.017009339582	1
12	5063	32.012757339582	2
12	5081	32.017009339582	1
12	5179	33.012757339582	2
12	5197	33.017009339582	1
12	5291	34.012757339582	2
12	5309	34.017009339582	1
12	5407	35.012757339582	2
12	5425	35.017009339582	1
12	5519	36.012757339582	2
12	5537	36.017009339582	1
12	5635	37.012757339582	2
12	5653	37.017009339582	1
12	5747	38.012757339582	2
12	5765	38.017009339582	1
12	5863	39.012757339582	2
12	5881	39.017009339582	1
12	5975	40.012757339582	2
12	5993	40.017009339582	1
12	6091	41.012757339582	2
12	6109	41.017009339582	1
12	6203	42.012757339582	2
12	6221	42.017009339582	1
12	6319	43.012757339582	2
12	6337	43.017009339582	1
12	6431	44.012757339582	2
12	6449	44.017009339582	1
12	6547	45.012757339582	2
12	6565	45.017009339582	1
12	6659	46.012757339582	2
12	6677	46.017009339582	1
12	6775	47.012757339582	2
12	6793	47.017009339582	1
12	6887	48.012757339582	2
12	6905	48.017009339582	1
12	7003	49.012757339582	2
12	7021	49.017009339582	1
12	7115	50.012757339582	2
12	7133	50.017009339582	1
12	7231	51.012757339582	2
12	7249	51.017009339582	1
12	7343	52.012757339582	2
12	7361	52.017009339582	1
12	7459	53.012757339582	2
12	7477	53.017009339582	1
12	7571	54.012757339582	2
12	7589	54.017009339582	1
12	7687	55.012757339582	2
12	7705	55.017009339582	1
12	7799	56.012757339582	2
12	7817	56.017009339582	1
12	7915	57.012757339582	2
12	7933	57.017009339582	1
12	8027	58.012757339582	2
12	8045	58.017009339582	1
12	8143	59.012757339582	2
12	8161	59.017009339582	1
12	8255	60.012757339582	2
12	8273	60.017009339582	1
12	8371	61.012757339582	2
12	8389	61.017009339582	1
12	8483	62.012757339582	2
12	8501	62.017009339582	1
12	8599	63.012757339582	2
12	8617	63.017009339582	1
12	8711	64.012757339582	2
12	8729	64.017009339582	1
12	8827	65.012757339582	2
12	8845	65.017009339582	1
12	8939	66.012757339582	2
12	8957	66.017009339582	1
12	9055	67.012757339582	2
12	9073	67.017009339582	1
12	9167	68.012757339582	2
12	9185	68.017009339582	1
12	9283	69.012757339582	2
12	9301	69.017009339582	1
12	9395	70.012757339582	2
12	9413	70.017009339582	1
12	9511	71.012757339582	2
12	9529	71.017009339582	1
12	9623	72.012757339582	2
12	9641	72.017009339582	1
12	9739	73.012757339582	2
12	9757	73.017009339582	1
12	9851	74.012757339582	2
12	9869	74.017009339582	1
12	9967	75.012757339582	2
12	9985	75.017009339582	1
12	10079	76.012757339582	2
12	10097	76.017009339582	1
12	10195	77.012757339582	2
12	10213	77.017009339582	1
12	10307	78.012757339582	2
12	10325	78.017009339582	1
12	10423	79.012757339582	2
12	10441	79.017009339582	1
12	10535	80.012757339582	2
12	10553	80.017009339582	1
12	10651	81.012757339582	2
12	10669	81.017009339582	1
12	10763	82.012757339582	2
12	10781	82.017009339582	1
12	10879	83.012757339582	2
12	10897	83.017009339582	1
12	10991	84.012757339582	2
12	11009	84.017009339582	1
12	11107	85.012757339582	2
12	11125	85.017009339582	1
12	11219	86.012757339582	2
12	11237	86.017009339582	1
12	11335	87.012757339582	2
12	11353	87.017009339582	1
12	11447	88.012757339582	2
12	11465	88.017009339582	1
12	11563	89.012757339582	2
12	11581	89.017009339582	1
12	11675	90.012757339582	2
12	11693	90.017009339582	1
12	11791	91.012757339582	2
12	11809	91.017009339582	1
12	11903	92.012757339582	2
12	11921	92.017009339582	1
12	12019	93.012757339582	2
12	12037	93.017009339582	1
12	12131	94.012757339582	2
12	12149	94.017009339582	1
12	12247	95.012757339582	2
12	12265	95.017009339582	1
12	12359	96.012757339582	2
12	12377	96.017009339582	1
[...]
153	24356	87.1	0
153	24356	87.2	0
153	24356	87.3	0
153	24356	87.4	0
153	24356	87.5	0
153	24356	87.6	0
153	24356	87.7	0
153	24356	87.8	0
153	24356	87.9	0
153	24356	88	0
153	24356	88.1	0
153	24356	88.2	0
153	24356	88.3	0
153	24356	88.4	0
153	24356	88.5	0
153	24356	88.6	0
153	24356	88.7	0
153	24356	88.8	0
153	24356	88.9	0
153	24356	89	0
153	24356	89.1	0
153	24356	89.2	0
153	24356	89.3	0
153	24356	89.4	0
153	24356	89.5	0
153	24356	89.6	0
153	24356	89.7	0
153	24356	89.8	0
153	24356	89.9	0
153	24356	90	0
153	24356	90.1	0
153	24356	90.2	0
153	24356	90.3	0
153	24356	90.4	0
153	24356	90.5	0
153	24356	90.6	0
153	24356	90.7	0
153	24356	90.8	0
153	24356	90.9	0
153	24356	91	0
153	24356	91.1	0
153	24356	91.2	0
153	24356	91.3	0
153	24356	91.4	0
153	24356	91.5	0
153	24356	91.6	0
153	24356	91.7	0
153	24356	91.8	0
153	24356	91.9	0
153	24356	92	0
153	24356	92.1	0
153	24356	92.2	0
153	24356	92.3	0
153	24356	92.4	0
153	24356	92.5	0
153	24356	92.6	0
153	24356	92.7	0
153	24356	92.8	0
153	24356	92.9	0
153	24356	93	0
153	24356	93.1	0
153	24356	93.2	0
153	24356	93.3	0
153	24356	93.4	0
153	24356	93.5	0
153	24356	93.6	0
153	24356	93.7	0
153	24356	93.8	0
153	24356	93.9	0
153	24356	94	0
153	24356	94.1	0
153	24356	94.2	0
153	24356	94.3	0
153	24356	94.4	0
153	24356	94.5	0
153	24356	94.6	0
153	24356	94.7	0
153	24356	94.8	0
153	24356	94.9	0
153	24356	95	0
153	24356	95.1	0
153	24356	95.2	0
153	24356	95.3	0
153	24356	95.4	0
153	24356	95.5	0
153	24356	95.6	0
153	24356	95.7	0
153	24356	95.8	0
153	24356	95.9	0
153	24356	96	0
153	24356	96.1	0
153	24356	96.2	0
153	24356	96.3	0
153	24356	96.4	0
153	24356	96.5	0
153	24356	96.6	0
153	24356	96.7	0
153	24356	96.8	0
153	24356	96.9	0
153	24356	97	0
153	24356	97.1	0
153	24356	97.2	0
153	24356	97.3	0
153	24356	97.4	0
153	24356	97.5	0
153	24356	97.6	0
153	24356	97.7	0
153	24356	97.8	0
153	24356	97.9	0
153	24356	98	0
153	24356	98.1	0
153	24356	98.2	0
153	24356	98.3	0
153	24356	98.4	0
153	24356	98.5	0
153	24356	98.6	0
153	24356	98.7	0
153	24356	98.8	0
153	24356	98.9	0
153	24356	99	0
153	24356	99.1	0
153	24356	99.2	0
153	24356	99.3	0
153	24356	99.4	0
153	24356	99.5	0
153	24356	99.6	0
153	24356	99.7	0
153	24356	99.8	0
153	24356	99.9	0
153	24356	100	0
153	24356	100.1	0
153	24356	100.2	0
153	24356	100.3	0
153	24356	100.4	0
153	24356	100.5	0
153	24356	100.6	0
153	24356	100.7	0
153	24356	100.8	0
153	24356	100.9	0
153	24356	101	0
153	24356	101.1	0
153	24356	101.2	0
153	24356	101.3	0
153	24356	101.4	0
153	24356	101.5	0
153	24356	101.6	0
153	24356	101.7	0
153	24356	101.8	0
153	24356	101.9	0
153	24356	102	0
153	24356	102.1	0
153	24356	102.2	0
153	24356	102.3	0
153	24356	102.4	0
153	24356	102.5	0
153	24356	102.6	0
153	24356	102.7	0
153	24356	102.8	0
153	24356	102.9	0
153	24356	103	0
153	24356	103.1	0
153	24356	103.2	0
153	24356	103.3	0
153	24356	103.4	0
153	24356	103.5	0
153	24356	103.6	0
153	24356	103.7	0
153	24356	103.8	0
153	24356	103.9	0
153	24356	104	0
153	24356	104.1	0
153	24356	104.2	0
153	24356	104.3	0
153	24356	104.4	0
153	24356	104.5	0
153	24356	104.6	0
153	24356	104.7	0
153	24356	104.8	0
153	24356	104.9	0
153	24356	105	0
153	24356	105.1	0
153	24356	105.2	0
153	24356	105.3	0
153	24356	105.4	0
153	24356	105.5	0
153	24356	105.6	0
153	24356	105.7	0
153	24356	105.8	0
153	24356	105.9	0
153	24356	106	0
153	24356	106.1	0
153	24356	106.2	0
153	24356	106.3	0
153	24356	106.4	0
153	24356	106.5	0
153	24356	106.6	0
153	24356	106.7	0
153	24356	106.8	0
153	24356	106.9	0
153	24356	107	0
153	24356	107.1	0
153	24356	107.2	0
153	24356	107.3	0
153	24356	107.4	0
153	24356	107.5	0
153	24356	107.6	0
153	24356	107.7	0
153	24356	107.8	0
153	24356	107.9	0
153	24356	108	0
153	24356	108.1	0
153	24356	108.2	0
153	24356	108.3	0
153	24356	108.4	0
153	24356	108.5	0
153	24356	108.6	0
153	24356	108.7	0
153	24356	108.8	0
153	24356	108.9	0
153	24356	109	0
153	24356	109.1	0
153	24356	109.2	0
153	24356	109.3	0
153	24356	109.4	0
153	24356	109.5	0
153	24356	109.6	0
153	24356	109.7	0
153	24356	109.8	0
153	24356	109.9	0
153	24356	110	0
153	24356	110.1	0
153	24356	110.2	0
153	24356	110.3	0
153	24356	110.4	0
153	24356	110.5	0
153	24356	110.6	0
153	24356	110.7	0
153	24356	110.8	0
153	24356	110.9	0
153	24356	111	0
153	24356	111.1	0
153	24356	111.2	0
153	24356	111.3	0
153	24356	111.4	0
153	24356	111.5	0
153	24356	111.6	0
153	24356	111.7	0
153	24356	111.8	0
153	24356	111.9	0
153	24356	112	0
153	24356	112.1	0
153	24356	112.2	0
153	24356	112.3	0
153	24356	112.4	0
153	24356	112.5	0
153	24356	112.6	0
153	24356	112.7	0
153	24356	112.8	0
153	24356	112.9	0
153	24356	113	0
153	24356	113.1	0
153	24356	113.2	0
153	24356	113.3	0
153	24356	113.4	0
153	24356	113.5	0
153	24356	113.6	0
153	24356	113.7	0
153	24356	113.8	0
153	24356	113.9	0
153	24356	114	0
153	24356	114.1	0
153	24356	114.2	0
153	24356	114.3	0
153	24356	114.4	0
153	24356	114.5	0
153	24356	114.6	0
153	24356	114.7	0
153	24356	114.8	0
153	24356	114.9	0
153	24356	115	0
153	24356	115.1	0
153	24356	115.2	0
153	24356	115.3	0
153	24356	115.4	0
153	24356	115.5	0
153	24356	115.6	0
153	24356	115.7	0
153	24356	115.8	0
153	24356	115.9	0
153	24356	116	0
153	24356	116.1	0
153	24356	116.2	0
153	24356	116.3	0
153	24356	116.4	0
153	24356	116.5	0
153	24356	116.6	0
153	24356	116.7	0
153	24356	116.8	0
153	24356	116.9	0
153	24356	117	0
153	24356	117.1	0
153	24356	117.2	0
153	24356	117.3	0
153	24356	117.4	0
153	24356	117.5	0
153	24356	117.6	0
153	24356	117.7	0
153	24356	117.8	0
153	24356	117.9	0
153	24356	118	0
153	24356	118.1	0
153	24356	118.2	0
153	24356	118.3	0
153	24356	118.4	0
153	24356	118.5	0
153	24356	118.6	0
153	24356	118.7	0
153	24356	118.8	0
153	24356	118.9	0
153	24356	119	0
153	24356	119.1	0
153	24356	119.2	0
153	24356	119.3	0
153	24356	119.4	0
153	24356	119.5	0
153	24356	119.6	0
153	24356	119.7	0
153	24356	119.8	0
153	24356	119.9	0
153	24356	120	0
153	24356	120.1	0
153	24356	120.2	0
153	24356	120.3	0
153	24356	120.4	0
153	24356	120.5	0
153	24356	120.6	0
153	24356	120.7	0
153	24356	120.8	0
153	24356	120.9	0
153	24356	121	0
153	24356	121.1	0
153	24356	121.2	0
153	24356	121.3	0
153	24356	121.4	0
153	24356	121.5	0
153	24356	121.6	0
153	24356	121.7	0
153	24356	121.8	0
153	24356	121.9	0
153	24356	122	0
153	24356	122.1	0
153	24356	122.2	0
153	24356	122.3	0
153	24356	122.4	0
153	24356	122.5	0
153	24356	122.6	0
153	24356	122.7	0
153	24356	122.8	0
153	24356	122.9	0
153	24356	123	0
153	24356	123.1	0
153	24356	123.2	0
153	24356	123.3	0
153	24356	123.4	0
153	24356	123.5	0
153	24356	123.6	0
153	24356	123.7	0
153	24356	123.8	0
153	24356	123.9	0
153	24356	124	0
153	24356	124.1	0
153	24356	124.2	0
153	24356	124.3	0
153	24356	124.4	0
153	24356	124.5	0
153	24356	124.6	0
153	24356	124.7	0
153	24356	124.8	0
153	24356	124.9	0
153	24356	125	0
153	24356	125.1	0
153	24356	125.2	0
153	24356	125.3	0
153	24356	125.4	0
153	24356	125.5	0
153	24356	125.6	0
153	24356	125.7	0
153	24356	125.8	0
153	24356	125.9	0
153	24356	126	0
153	24356	126.1	0
153	24356	126.2	0
153	24356	126.3	0
153	24356	126.4	0
153	24356	126.5	0
153	24356	126.6	0
153	24356	126.7	0
153	24356	126.8	0
153	24356	126.9	0
153	24356	127	0
153	24356	127.1	0
153	24356	127.2	0
153	24356	127.3	0
153	24356	127.4	0
153	24356	127.5	0
153	24356	127.6	0
153	24356	127.7	0
153	24356	127.8	0
153	24356	127.9	0
153	24356	128	0
153	24356	128.1	0
153	24356	128.2	0
153	24356	128.3	0
153	24356	128.4	0
153	24356	128.5	0
153	24356	128.6	0
153	24356	128.7	0
153	24356	128.8	0
153	24356	128.9	0
153	24356	129	0
153	24356	129.1	0
153	24356	129.2	0
153	24356	129.3	0
153	24356	129.4	0
153	24356	129.5	0
153	24356	129.6	0
153	24356	129.7	0
153	24356	129.8	0
153	24356	129.9	0
153	24356	130	0
153	24356	130.1	0
153	24356	130.2	0
153	24356	130.3	0
153	24356	130.4	0
153	24356	130.5	0
153	24356	130.6	0
153	24356	130.7	0
153	24356	130.8	0
153	24356	130.9	0
153	24356	131	0
153	24356	131.1	0
153	24356	131.2	0
153	24356	131.3	0
153	24356	131.4	0
153	24356	131.5	0
153	24356	131.6	0
153	24356	131.7	0
153	24356	131.8	0
153	24356	131.9	0
153	24356	132	0
153	24356	132.1	0
153	24356	132.2	0
153	24356	132.3	0
153	24356	132.4	0
153	24356	132.5	0
153	24356	132.6	0
153	24356	132.7	0
153	24356	132.8	0
153	24356	132.9	0
153	24356	133	0
153	24356	133.1	0
153	24356	133.2	0
153	24356	133.3	0
153	24356	133.4	0
153	24356	133.5	0
153	24356	133.6	0
153	24356	133.7	0
153	24356	133.8	0
153	24356	133.9	0
153	24356	134	0
153	24356	134.1	0
153	24356	134.2	0
153	24356	134.3	0
153	24356	134.4	0
153	24356	134.5	0
153	24356	134.6	0
153	24356	134.7	0
153	24356	134.8	0
153	24356	134.9	0
153	24356	135	0
153	24356	135.1	0
153	24356	135.2	0
153	24356	135.3	0
153	24356	135.4	0
153	24356	135.5	0
153	24356	135.6	0
153	24356	135.7	0
153	24356	135.8	0
153	24356	135.9	0
153	24356	136	0
153	24356	136.1	0
153	24356	136.2	0
153	24356	136.3	0
153	24356	136.4	0
153	24356	136.5	0
153	24356	136.6	0
153	24356	136.7	0
153	24356	136.8	0
153	24356	136.9	0
153	24356	137	0
153	24356	137.1	0
153	24356	137.2	0
153	24356	137.3	0
153	24356	137.4	0
153	24356	137.5	0
153	24356	137.6	0
153	24356	137.7	0
153	24356	137.8	0
153	24356	137.9	0
153	24356	138	0
153	24356	138.1	0
153	24356	138.2	0
153	24356	138.3	0
153	24356	138.4	0
153	24356	138.5	0
153	24356	138.6	0
153	24356	138.7	0
153	24356	138.8	0
153	24356	138.9	0
153	24356	139	0
153	24356	139.1	0
153	24356	139.2	0
153	24356	139.3	0
153	24356	139.4	0
153	24356	139.5	0
153	24356	139.6	0
153	24356	139.7	0
153	24356	139.8	0
153	24356	139.9	0
153	24356	140	0
153	24356	140.1	0
153	24356	140.2	0
153	24356	140.3	0
153	24356	140.4	0
153	24356	140.5	0
153	24356	140.6	0
153	24356	140.7	0
153	24356	140.8	0
153	24356	140.9	0
153	24356	141	0
153	24356	141.1	0
153	24356	141.2	0
153	24356	141.3	0
153	24356	141.4	0
153	24356	141.5	0
153	24356	141.6	0
153	24356	141.7	0
153	24356	141.8	0
153	24356	141.9	0
153	24356	142	0
153	24356	142.1	0
153	24356	142.2	0
153	24356	142.3	0
153	24356	142.4	0
153	24356	142.5	0
153	24356	142.6	0
153	24356	142.7	0
153	24356	142.8	0
153	24356	142.9	0
153	24356	143	0
153	24356	143.1	0
153	24356	143.2	0
153	24356	143.3	0
153	24356	143.4	0
153	24356	143.5	0
153	24356	143.6	0
153	24356	143.7	0
153	24356	143.8	0
153	24356	143.9	0
153	24356	144	0
153	24356	144.1	0
153	24356	144.2	0
153	24356	144.3	0
153	24356	144.4	0
153	24356	144.5	0
153	24356	144.6	0
153	24356	144.7	0
153	24356	144.8	0
153	24356	144.9	0
153	24356	145	0
153	24356	145.1	0
153	24356	145.2	0
153	24356	145.3	0
153	24356	145.4	0
153	24356	145.5	0
153	24356	145.6	0
153	24356	145.7	0
153	24356	145.8	0
153	24356	145.9	0
153	24356	146	0
153	24356	146.1	0
153	24356	146.2	0
153	24356	146.3	0
153	24356	146.4	0
153	24356	146.5	0
153	24356	146.6	0
153	24356	146.7	0
153	24356	146.8	0
153	24356	146.9	0
153	24356	147	0
153	24356	147.1	0
153	24356	147.2	0
153	24356	147.3	0
153	24356	147.4	0
153	24356	147.5	0
153	24356	147.6	0
153	24356	147.7	0
153	24356	147.8	0
153	24356	147.9	0
153	24356	148	0
153	24356	148.1	0
153	24356	148.2	0
153	24356	148.3	0
153	24356	148.4	0
153	24356	148.5	0
153	24356	148.6	0
153	24356	148.7	0
153	24356	148.8	0
153	24356	148.9	0
153	24356	149	0
153	24356	149.1	0
153	24356	149.2	0
153	24356	149.3	0
153	24356	149.4	0
153	24356	149.5	0
153	24356	149.6	0
153	24356	149.7	0
153	24356	149.8	0
153	24356	149.9	0
153	24356	150	0
153	24356	150.1	0
153	24356	150.2	0
153	24356	150.3	0
153	24356	150.4	0
153	24356	150.5	0
153	24356	150.6	0
153	24356	150.7	0
153	24356	150.8	0
153	24356	150.9	0
153	24356	151	0
153	24356	151.1	0
153	24356	151.2	0
153	24356	151.3	0
153	24356	151.4	0
153	24356	151.5	0
153	24356	151.6	0
153	24356	151.7	0
153	24356	151.8	0
153	24356	151.9	0
153	24356	152	0
153	24356	152.1	0
153	24356	152.2	0
153	24356	152.3	0
153	24356	152.4	0
153	24356	152.5	0
153	24356	152.6	0
153	24356	152.7	0
153	24356	152.8	0
153	24356	152.9	0
153	24356	153	0
153	24356	153.1	0
153	24356	153.2	0
153	24356	153.3	0
153	24356	153.4	0
153	24356	153.5	0
153	24356	153.6	0
153	24356	153.7	0
153	24356	153.8	0
153	24356	153.9	0
153	24356	154	0
153	24356	154.1	0
153	24356	154.2	0
153	24356	154.3	0
153	24356	154.4	0
153	24356	154.5	0
153	24356	154.6	0
153	24356	154.7	0
153	24356	154.8	0
153	24356	154.9	0
153	24356	155	0
153	24356	155.1	0
153	24356	155.2	0
153	24356	155.3	0
153	24356	155.4	0
153	24356	155.5	0
153	24356	155.6	0
153	24356	155.7	0
153	24356	155.8	0
153	24356	155.9	0
153	24356	156	0
153	24356	156.1	0
153	24356	156.2	0
153	24356	156.3	0
153	24356	156.4	0
153	24356	156.5	0
153	24356	156.6	0
153	24356	156.7	0
153	24356	156.8	0
153	24356	156.9	0
153	24356	157	0
153	24356	157.1	0
153	24356	157.2	0
153	24356	157.3	0
153	24356	157.4	0
153	24356	157.5	0
153	24356	157.6	0
153	24356	157.7	0
153	24356	157.8	0
153	24356	157.9	0
153	24356	158	0
153	24356	158.1	0
153	24356	158.2	0
153	24356	158.3	0
153	24356	158.4	0
153	24356	158.5	0
153	24356	158.6	0
153	24356	158.7	0
153	24356	158.8	0
153	24356	158.9	0
153	24356	159	0
153	24356	159.1	0
153	24356	159.2	0
153	24356	159.3	0
153	24356	159.4	0
153	24356	159.5	0
153	24356	159.6	0
153	24356	159.7	0
153	24356	159.8	0
153	24356	159.9	0
153	24356	160	0
153	24356	160.1	0
153	24356	160.2	0
153	24356	160.3	0
153	24356	160.4	0
153	24356	160.5	0
153	24356	160.6	0
153	24356	160.7	0
153	24356	160.8	0
153	24356	160.9	0
153	24356	161	0
153	24356	161.1	0
153	24356	161.2	0
153	24356	161.3	0
153	24356	161.4	0
153	24356	161.5	0
153	24356	161.6	0
153	24356	161.7	0
153	24356	161.8	0
153	24356	161.9	0
153	24356	162	0
153	24356	162.1	0
153	24356	162.2	0
153	24356	162.3	0
153	24356	162.4	0
153	24356	162.5	0
153	24356	162.6	0
153	24356	162.7	0
153	24356	162.8	0
153	24356	162.9	0
153	24356	163	0
153	24356	163.1	0
153	24356	163.2	0
153	24356	163.3	0
153	24356	163.4	0
153	24356	163.5	0
153	24356	163.6	0
153	24356	163.7	0
153	24356	163.8	0
153	24356	163.9	0
153	24356	164	0
153	24356	164.1	0
153	24356	164.2	0
153	24356	164.3	0
153	24356	164.4	0
153	24356	164.5	0
153	24356	164.6	0
153	24356	164.7	0
153	24356	164.8	0
153	24356	164.9	0
153	24356	165	0
153	24356	165.1	0
153	24356	165.2	0
153	24356	165.3	0
153	24356	165.4	0
153	24356	165.5	0
153	24356	165.6	0
153	24356	165.7	0
153	24356	165.8	0
153	24356	165.9	0
153	24356	166	0
153	24356	166.1	0
153	24356	166.2	0
153	24356	166.3	0
153	24356	166.4	0
153	24356	166.5	0
153	24356	166.6	0
153	24356	166.7	0
153	24356	166.8	0
153	24356	166.9	0
153	24356	167	0
153	24356	167.1	0
153	24356	167.2	0
153	24356	167.3	0
153	24356	167.4	0
153	24356	167.5	0
153	24356	167.6	0
153	24356	167.7	0
153	24356	167.8	0
153	24356	167.9	0
153	24356	168	0
153	24356	168.1	0
153	24356	168.2	0
153	24356	168.3	0
153	24356	168.4	0
153	24356	168.5	0
153	24356	168.6	0
153	24356	168.7	0
153	24356	168.8	0
153	24356	168.9	0
153	24356	169	0
153	24356	169.1	0
153	24356	169.2	0
153	24356	169.3	0
153	24356	169.4	0
153	24356	169.5	0
153	24356	169.6	0
153	24356	169.7	0
153	24356	169.8	0
153	24356	169.9	0
153	24356	170	0
153	24356	170.1	0
153	24356	170.2	0
153	24356	170.3	0
153	24356	170.4	0
153	24356	170.5	0
153	24356	170.6	0
153	24356	170.7	0
153	24356	170.8	0
153	24356	170.9	0
153	24356	171	0
153	24356	171.1	0
153	24356	171.2	0
153	24356	171.3	0
153	24356	171.4	0
153	24356	171.5	0
153	24356	171.6	0
153	24356	171.7	0
153	24356	171.8	0
153	24356	171.9	0
153	24356	172	0
153	24356	172.1	0
153	24356	172.2	0
153	24356	172.3	0
153	24356	172.4	0
153	24356	172.5	0
153	24356	172.6	0
153	24356	172.7	0
153	24356	172.8	0
153	24356	172.9	0
153	24356	173	0
153	24356	173.1	0
153	24356	173.2	0
153	24356	173.3	0
153	24356	173.4	0
153	24356	173.5	0
153	24356	173.6	0
153	24356	173.7	0
153	24356	173.8	0
153	24356	173.9	0
153	24356	174	0
153	24356	174.1	0
153	24356	174.2	0
153	24356	174.3	0
153	24356	174.4	0
153	24356	174.5	0
153	24356	174.6	0
153	24356	174.7	0
153	24356	174.8	0
153	24356	174.9	0
153	24356	175	0
153	24356	175.1	0
153	24356	175.2	0
153	24356	175.3	0
153	24356	175.4	0
153	24356	175.5	0
153	24356	175.6	0
153	24356	175.7	0
153	24356	175.8	0
153	24356	175.9	0
153	24356	176	0
153	24356	176.1	0
153	24356	176.2	0
153	24356	176.3	0
153	24356	176.4	0
153	24356	176.5	0
153	24356	176.6	0
153	24356	176.7	0
153	24356	176.8	0
153	24356	176.9	0
153	24356	177	0
153	24356	177.1	0
153	24356	177.2	0
153	24356	177.3	0
153	24356	177.4	0
153	24356	177.5	0
153	24356	177.6	0
153	24356	177.7	0
153	24356	177.8	0
153	24356	177.9	0
153	24356	178	0
153	24356	178.1	0
153	24356	178.2	0
153	24356	178.3	0
153	24356	178.4	0
153	24356	178.5	0
153	24356	178.6	0
153	24356	178.7	0
153	24356	178.8	0
153	24356	178.9	0
153	24356	179	0
153	24356	179.1	0
153	24356	179.2	0
153	24356	179.3	0
153	24356	179.4	0
153	24356	179.5	0
153	24356	179.6	0
153	24356	179.7	0
153	24356	179.8	0
153	24356	179.9	0
153	24356	180	0
153	24356	180.1	0
153	24356	180.2	0
153	24356	180.3	0
153	24356	180.4	0
153	24356	180.5	0
153	24356	180.6	0
153	24356	180.7	0
153	24356	180.8	0
153	24356	180.9	0
153	24356	181	0
153	24356	181.1	0
153	24356	181.2	0
153	24356	181.3	0
153	24356	181.4	0
153	24356	181.5	0
153	24356	181.6	0
153	24356	181.7	0
153	24356	181.8	0
153	24356	181.9	0
153	24356	182	0
153	24356	182.1	0
153	24356	182.2	0
153	24356	182.3	0
153	24356	182.4	0
153	24356	182.5	0
153	24356	182.6	0
153	24356	182.7	0
153	24356	182.8	0
153	24356	182.9	0
153	24356	183	0
153	24356	183.1	0
153	24356	183.2	0
153	24356	183.3	0
153	24356	183.4	0
153	24356	183.5	0
153	24356	183.6	0
153	24356	183.7	0
153	24356	183.8	0
153	24356	183.9	0
153	24356	184	0
153	24356	184.1	0
153	24356	184.2	0
153	24356	184.3	0
153	24356	184.4	0
153	24356	184.5	0
153	24356	184.6	0
153	24356	184.7	0
153	24356	184.8	0
153	24356	184.9	0
153	24356	185	0
153	24356	185.1	0
153	24356	185.2	0
153	24356	185.3	0
153	24356	185.4	0
153	24356	185.5	0
153	24356	185.6	0
153	24356	185.7	0
153	24356	185.8	0
153	24356	185.9	0
153	24356	186	0
153	24356	186.1	0
153	24356	186.2	0
153	24356	186.3	0
153	24356	186.4	0
153	24356	186.5	0
153	24356	186.6	0
153	24356	186.7	0
153	24356	186.8	0
153	24356	186.9	0
153	24356	187	0
153	24356	187.1	0
153	24356	187.2	0
153	24356	187.3	0
153	24356	187.4	0
153	24356	187.5	0
153	24356	187.6	0
153	24356	187.7	0
153	24356	187.8	0
153	24356	187.9	0
153	24356	188	0
153	24356	188.1	0
153	24356	188.2	0
153	24356	188.3	0
153	24356	188.4	0
153	24356	188.5	0
153	24356	188.6	0
153	24356	188.7	0
153	24356	188.8	0
153	24356	188.9	0
153	24356	189	0
153	24356	189.1	0
153	24356	189.2	0
153	24356	189.3	0
153	24356	189.4	0
153	24356	189.5	0
153	24356	189.6	0
153	24356	189.7	0
153	24356	189.8	0
153	24356	189.9	0
153	24356	190	0
153	24356	190.1	0
153	24356	190.2	0
153	24356	190.3	0
153	24356	190.4	0
153	24356	190.5	0
153	24356	190.6	0
153	24356	190.7	0
153	24356	190.8	0
153	24356	190.9	0
153	24356	191	0
153	24356	191.1	0
153	24356	191.2	0
153	24356	191.3	0
153	24356	191.4	0
153	24356	191.5	0
153	24356	191.6	0
153	24356	191.7	0
153	24356	191.8	0
153	24356	191.9	0
153	24356	192	0
153	24356	192.1	0
153	24356	192.2	0
153	24356	192.3	0
153	24356	192.4	0
153	24356	192.5	0
153	24356	192.6	0
153	24356	192.7	0
153	24356	192.8	0
153	24356	192.9	0
153	24356	193	0
153	24356	193.1	0
153	24356	193.2	0
153	24356	193.3	0
153	24356	193.4	0
153	24356	193.5	0
153	24356	193.6	0
153	24356	193.7	0
153	24356	193.8	0
153	24356	193.9	0
153	24356	194	0
153	24356	194.1	0
153	24356	194.2	0
153	24356	194.3	0
153	24356	194.4	0
153	24356	194.5	0
153	24356	194.6	0
153	24356	194.7	0
153	24356	194.8	0
153	24356	194.9	0
153	24356	195	0
153	24356	195.1	0
153	24356	195.2	0
153	24356	195.3	0
153	24356	195.4	0
153	24356	195.5	0
153	24356	195.6	0
153	24356	195.7	0
153	24356	195.8	0
153	24356	195.9	0
153	24356	196	0
153	24356	196.1	0
153	24356	196.2	0
153	24356	196.3	0
153	24356	196.4	0
153	24356	196.5	0
153	24356	196.6	0
153	24356	196.7	0
153	24356	196.8	0
153	24356	196.9	0
153	24356	197	0
153	24356	197.1	0
153	24356	197.2	0
153	24356	197.3	0
153	24356	197.4	0
153	24356	197.5	0
153	24356	197.6	0
153	24356	197.7	0
153	24356	197.8	0
153	24356	197.9	0
153	24356	198	0
153	24356	198.1	0
153	24356	198.2	0
153	24356	198.3	0
153	24356	198.4	0
153	24356	198.5	0
153	24356	198.6	0
153	24356	198.7	0
153	24356	198.8	0
153	24356	198.9	0
153	24356	199	0
153	24356	199.1	0
153	24356	199.2	0
153	24356	199.3	0
153	24356	199.4	0
153	24356	199.5	0
153	24356	199.6	0
153	24356	199.7	0
153	24356	199.8	0
153	24356	199.9	0
153	24356	200	0

