version 2
run Dynamic-0-20200826-14:54:41-13117
attr configname Dynamic
attr datetime 20200826-14:54:41
attr experiment Dynamic
attr inifile AODVnormal.ini
attr iterationvars ""
attr iterationvarsf ""
attr measurement ""
attr network AODVnormal
attr processid 13117
attr repetition 0
attr replication #0
attr resultdir results
attr runnumber 0
attr seedset 0
param *.host[*].hasStatus true
param *.scenarioManager.script "xmldoc(\"dynamic.xml\")"
param *.host[*].wlan[*].radio.transmitter.communicationRange 250m
param *.sender.wlan[*].radio.transmitter.communicationRange 250m
param *.receiver.wlan[*].radio.transmitter.communicationRange 250m
param **.wlan[*].typename "\"AckingWirelessInterface\""
param **.wlan[*].bitrate 2Mbps
param **.wlan[*].mac.headerLength 23B
param **.wlan[*].radio.typename "\"UnitDiskRadio\""
param **.wlan[*].radio.transmitter.headerLength 96b
param **.wlan[*].radio.transmitter.communicationRange 250m
param **.wlan[*].radio.transmitter.interferenceRange 0m
param **.wlan[*].radio.transmitter.detectionRange 0m
param **.wlan[*].radio.receiver.ignoreInterference true
param *.numHosts 38
param **.host[*].mobility.typename "\"StationaryMobility\""
param **.mobility.constraintAreaMinZ 0m
param **.mobility.constraintAreaMaxZ 0m
param **.mobility.constraintAreaMinX 5m
param **.mobility.constraintAreaMinY 5m
param **.mobility.constraintAreaMaxX 995m
param **.mobility.constraintAreaMaxY 995m
param *.visualizer.dataLinkVisualizer.displayLinks true
param *.visualizer.networkRouteVisualizer.displayRoutes true
param *.visualizer.networkRouteVisualizer.lineShift 0
param *.visualizer.networkRouteVisualizer.packetFilter "\"UDPData*\""
param *.sender.numApps 1
param *.sender.app[0].typename "\"UdpBasicApp\""
param *.sender.app[0].destAddresses "\"receiver\""
param *.sender.app[0].destPort 1000
param *.sender.app[0].sendInterval 1s
param *.sender.app[0].startTime 0s
param *.sender.app[0].messageLength 1000Byte
param *.sender.app[0].packetName "\"UDPdata\""
param *.receiver.numApps 1
param *.receiver.app[0].typename "\"UdpSink\""
param *.receiver.app[0].localPort 1000
param **.hasStatus true

scalar AODVnormal.radioMedium.propagation "Arrival computation count" 44265
scalar AODVnormal.radioMedium "transmission count" 1135
scalar AODVnormal.radioMedium "signal send count" 44265
scalar AODVnormal.radioMedium "reception computation count" 44156
scalar AODVnormal.radioMedium "interference computation count" 131506
scalar AODVnormal.radioMedium "reception decision computation count" 6777
scalar AODVnormal.radioMedium "listening decision computation count" 81383
scalar AODVnormal.radioMedium "reception cache hit" 78.18595000494
attr unit %
scalar AODVnormal.radioMedium "interference cache hit" 66.666666666667
attr unit %
scalar AODVnormal.radioMedium "noise cache hit" 0
attr unit %
scalar AODVnormal.radioMedium "snir cache hit" 50
attr unit %
scalar AODVnormal.radioMedium "reception decision cache hit" 50
attr unit %
scalar AODVnormal.radioMedium "reception result cache hit" 0
attr unit %
scalar AODVnormal.host[0].lo[0].lo rcvdPkFromHl:count 0
attr interpolationmode none
attr source packetReceivedFromUpper
attr title "packets received from higher layer, count"
scalar AODVnormal.host[0].lo[0].lo rcvdPkFromHl:sum(packetBytes) 0
attr interpolationmode none
attr source packetReceivedFromUpper
attr title "packets received from higher layer, sum(packetBytes)"
scalar AODVnormal.host[0].lo[0].lo passedUpPk:count 0
attr interpolationmode none
attr source packetSentToUpper
attr title "packets passed to higher layer, count"
scalar AODVnormal.host[0].lo[0].lo passedUpPk:sum(packetBytes) 0
attr interpolationmode none
attr source packetSentToUpper
attr title "packets passed to higher layer, sum(packetBytes)"
scalar AODVnormal.host[0].wlan[0].mac.queue packetPopped:count 3
attr interpolationmode none
attr title "packet popped, count"
scalar AODVnormal.host[0].wlan[0].mac.queue packetPopped:sum(packetBytes) 156
attr interpolationmode none
attr title "packet popped, sum(packetBytes)"
statistic AODVnormal.host[0].wlan[0].mac.queue queueingTime:histogram
field count 3
field mean 0
field stddev 0
field min 0
field max 0
field sum 0
field sqrsum 0
attr interpolationmode none
attr source queueingTime(packetPopped)
attr title "queueing times, histogram"
attr unit s
bin	-inf	0
bin	-0.5	0
bin	-0.48	0
bin	-0.46	0
bin	-0.44	0
bin	-0.42	0
bin	-0.4	0
bin	-0.38	0
bin	-0.36	0
bin	-0.34	0
bin	-0.32	0
bin	-0.3	0
bin	-0.28	0
bin	-0.26	0
bin	-0.24	0
bin	-0.22	0
bin	-0.2	0
bin	-0.18	0
bin	-0.16	0
bin	-0.14	0
bin	-0.12	0
bin	-0.1	0
bin	-0.08	0
bin	-0.06	0
bin	-0.04	0
bin	-0.02	0
bin	0	3
bin	0.02	0
bin	0.04	0
bin	0.06	0
bin	0.08	0
bin	0.1	0
bin	0.12	0
bin	0.14	0
bin	0.16	0
bin	0.18	0
bin	0.2	0
bin	0.22	0
bin	0.24	0
bin	0.26	0
bin	0.28	0
bin	0.3	0
bin	0.32	0
bin	0.34	0
bin	0.36	0
bin	0.38	0
bin	0.4	0
bin	0.42	0
bin	0.44	0
bin	0.46	0
bin	0.48	0
bin	0.5	0
scalar AODVnormal.host[0].wlan[0].mac.queue queueLength:max 1
attr interpolationmode sample-hold
attr source "count(packetPushed) - count(packetPopped) - count(packetRemoved) - count(packetDropped)"
attr title "queue length, max"
scalar AODVnormal.host[0].wlan[0].mac.queue queueLength:timeavg 0
attr interpolationmode sample-hold
attr source "count(packetPushed) - count(packetPopped) - count(packetRemoved) - count(packetDropped)"
attr title "queue length, timeavg"
scalar AODVnormal.host[0].wlan[0].mac.queue packetPushed:count 3
attr interpolationmode none
attr title "packet pushed, count"
scalar AODVnormal.host[0].wlan[0].mac.queue packetPushed:sum(packetBytes) 156
attr interpolationmode none
attr title "packet pushed, sum(packetBytes)"
scalar AODVnormal.host[0].wlan[0].mac.queue packetDropQueueOverflow:count 0
attr interpolationmode none
attr source packetDropReasonIsQueueOverflow(packetDropped)
attr title "packet drops: queue overflow, count"
scalar AODVnormal.host[0].wlan[0].mac.queue packetDropQueueOverflow:sum(packetBytes) 0
attr interpolationmode none
attr source packetDropReasonIsQueueOverflow(packetDropped)
attr title "packet drops: queue overflow, sum(packetBytes)"
scalar AODVnormal.host[0].wlan[0].mac.queue packetRemoved:count 0
attr interpolationmode none
attr title "packets removed, count"
scalar AODVnormal.host[0].wlan[0].mac.queue packetRemoved:sum(packetBytes) 0
attr interpolationmode none
attr title "packets removed, sum(packetBytes)"
scalar AODVnormal.host[0].wlan[0].mac rcvdPkFromLl:count 220
attr interpolationmode none
attr source packetReceivedFromLower
attr title "packets received from lower layer, count"
scalar AODVnormal.host[0].wlan[0].mac rcvdPkFromLl:sum(packetBytes) 211568
attr interpolationmode none
attr source packetReceivedFromLower
attr title "packets received from lower layer, sum(packetBytes)"
scalar AODVnormal.host[0].wlan[0].mac sentDownPk:count 3
attr interpolationmode none
attr source packetSentToLower
attr title "packets sent to lower layer, count"
scalar AODVnormal.host[0].wlan[0].mac sentDownPk:sum(packetBytes) 225
attr interpolationmode none
attr source packetSentToLower
attr title "packets sent to lower layer, sum(packetBytes)"
scalar AODVnormal.host[0].wlan[0].mac rcvdPkFromHl:count 3
attr interpolationmode none
attr source packetReceivedFromUpper
attr title "packets received from higher layer, count"
scalar AODVnormal.host[0].wlan[0].mac rcvdPkFromHl:sum(packetBytes) 156
attr interpolationmode none
attr source packetReceivedFromUpper
attr title "packets received from higher layer, sum(packetBytes)"
scalar AODVnormal.host[0].wlan[0].mac passedUpPk:count 14
attr interpolationmode none
attr source packetSentToUpper
attr title "packets passed to higher layer, count"
scalar AODVnormal.host[0].wlan[0].mac passedUpPk:sum(packetBytes) 680
attr interpolationmode none
attr source packetSentToUpper
attr title "packets passed to higher layer, sum(packetBytes)"
scalar AODVnormal.host[0].wlan[0].mac packetDropIncorrectlyReceived:count 0
attr interpolationmode none
attr source packetDropReasonIsIncorrectlyReceived(packetDropped)
attr title "packet drop: incorrectly received, count"
scalar AODVnormal.host[0].wlan[0].mac packetDropIncorrectlyReceived:sum(packetBytes) 0
attr interpolationmode none
attr source packetDropReasonIsIncorrectlyReceived(packetDropped)
attr title "packet drop: incorrectly received, sum(packetBytes)"
scalar AODVnormal.host[0].wlan[0].mac packetDropInterfaceDown:count 0
attr interpolationmode none
attr source packetDropReasonIsInterfaceDown(packetDropped)
attr title "packet drop: interface down, count"
scalar AODVnormal.host[0].wlan[0].mac packetDropInterfaceDown:sum(packetBytes) 0
attr interpolationmode none
attr source packetDropReasonIsInterfaceDown(packetDropped)
attr title "packet drop: interface down, sum(packetBytes)"
scalar AODVnormal.host[0].wlan[0].mac packetDropNotAddressedToUs:count 206
attr interpolationmode none
attr source packetDropReasonIsNotAddressedToUs(packetDropped)
attr title "packet drop: not addressed to us, count"
scalar AODVnormal.host[0].wlan[0].mac packetDropNotAddressedToUs:sum(packetBytes) 210566
attr interpolationmode none
attr source packetDropReasonIsNotAddressedToUs(packetDropped)
attr title "packet drop: not addressed to us, sum(packetBytes)"
scalar AODVnormal.host[0].wlan[0].mac linkBroken:count 0
attr interpolationmode none
attr source linkBroken
attr title "link break, count"
scalar AODVnormal.host[0].wlan[0].radio radioMode:count 3
attr interpolationmode sample-hold
attr source radioModeChanged
attr title "Radio mode, count"
scalar AODVnormal.host[0].wlan[0].radio receptionState:count 442
attr interpolationmode sample-hold
attr source receptionStateChanged
attr title "Radio reception state, count"
scalar AODVnormal.host[0].wlan[0].radio transmissionState:count 7
attr interpolationmode sample-hold
attr source transmissionStateChanged
attr title "Radio transmission state, count"
statistic AODVnormal.host[0].wlan[0].radio minSnir:histogram
field count 0
field mean -nan
field stddev nan
field min nan
field max nan
field sum 0
field sqrsum 0
attr source minimumSnir(packetSentToUpper)
attr title "Min SNIR, histogram"
bin	-inf	0
bin	0	0
bin	1	0
statistic AODVnormal.host[0].wlan[0].radio packetErrorRate:histogram
field count 220
field mean 0.0045454545454545
field stddev 0.067419986246324
field min 0
field max 1
field sum 1
field sqrsum 1
attr source packetErrorRate(packetSentToUpper)
attr title "Packet error rate, histogram"
bin	-inf	0
bin	0	219
bin	1	1
bin	2	0
statistic AODVnormal.host[0].wlan[0].radio bitErrorRate:histogram
field count 220
field mean 0.0045454545454545
field stddev 0.067419986246324
field min 0
field max 1
field sum 1
field sqrsum 1
attr source bitErrorRate(packetSentToUpper)
attr title "Bit error rate, histogram"
bin	-inf	0
bin	0	219
bin	1	1
bin	2	0
statistic AODVnormal.host[0].wlan[0].radio symbolErrorRate:histogram
field count 220
field mean 0.0045454545454545
field stddev 0.067419986246324
field min 0
field max 1
field sum 1
field sqrsum 1
attr source symbolErrorRate(packetSentToUpper)
attr title "Symbol error rate, histogram"
bin	-inf	0
bin	0	219
bin	1	1
bin	2	0
scalar AODVnormal.host[0].ipv4.ip packetDropAddressResolutionFailed:count 0
attr interpolationmode none
attr source packetDropReasonIsAddressResolutionFailed(packetDropped)
attr title "packet drop: address resolution failed, count"
scalar AODVnormal.host[0].ipv4.ip packetDropAddressResolutionFailed:sum(packetBytes) 0
attr interpolationmode none
attr source packetDropReasonIsAddressResolutionFailed(packetDropped)
attr title "packet drop: address resolution failed, sum(packetBytes)"
scalar AODVnormal.host[0].ipv4.ip packetDropHopLimitReached:count 0
attr interpolationmode none
attr source packetDropReasonIsHopLimitReached(packetDropped)
attr title "packet drop: hop limit reached, count"
scalar AODVnormal.host[0].ipv4.ip packetDropHopLimitReached:sum(packetBytes) 0
attr interpolationmode none
attr source packetDropReasonIsHopLimitReached(packetDropped)
attr title "packet drop: hop limit reached, sum(packetBytes)"
scalar AODVnormal.host[0].ipv4.ip packetDropForwardingDisabled:count 0
attr interpolationmode none
attr source packetDropReasonIsForwardingDisabled(packetDropped)
attr title "packet drop: forwarding disabled, count"
scalar AODVnormal.host[0].ipv4.ip packetDropForwardingDisabled:sum(packetBytes) 0
attr interpolationmode none
attr source packetDropReasonIsForwardingDisabled(packetDropped)
attr title "packet drop: forwarding disabled, sum(packetBytes)"
scalar AODVnormal.host[0].ipv4.ip packetDropNoInterfaceFound:count 0
attr interpolationmode none
attr source packetDropReasonIsNoInterfaceFound(packetDropped)
attr title "packet drop: no interface found, count"
scalar AODVnormal.host[0].ipv4.ip packetDropNoInterfaceFound:sum(packetBytes) 0
attr interpolationmode none
attr source packetDropReasonIsNoInterfaceFound(packetDropped)
attr title "packet drop: no interface found, sum(packetBytes)"
scalar AODVnormal.host[0].ipv4.ip packetDropNoRouteFound:count 0
attr interpolationmode none
attr source packetDropReasonIsNoRouteFound(packetDropped)
attr title "packet drop: no route found, count"
scalar AODVnormal.host[0].ipv4.ip packetDropNoRouteFound:sum(packetBytes) 0
attr interpolationmode none
attr source packetDropReasonIsNoRouteFound(packetDropped)
attr title "packet drop: no route found, sum(packetBytes)"
scalar AODVnormal.host[0].ipv4.ip packetDropUndefined:count 0
attr interpolationmode none
attr source packetDropReasonIsUndefined(packetDropped)
attr title "packet drop: undefined, count"
scalar AODVnormal.host[0].ipv4.ip packetDropUndefined:sum(packetBytes) 0
attr interpolationmode none
attr source packetDropReasonIsUndefined(packetDropped)
attr title "packet drop: undefined, sum(packetBytes)"
scalar AODVnormal.host[0].ipv4.arp arpResolutionFailed:count 0
attr title "ARP failed resolutions, count"
scalar AODVnormal.host[0].ipv4.arp arpResolutionCompleted:count 0
attr title "ARP completed resolutions, count"
scalar AODVnormal.host[0].ipv4.arp arpResolutionInitiated:count 0
attr title "ARP initiated resolutions, count"
scalar AODVnormal.host[0].ipv4.arp arpReplySent:count 0
attr source arpReplySent
attr title "ARP replies sent, count"
scalar AODVnormal.host[0].ipv4.arp arpReplySent:sum(packetBytes) 0
attr source arpReplySent
attr title "ARP replies sent, sum(packetBytes)"
scalar AODVnormal.host[0].ipv4.arp arpRequestSent:count 0
attr source arpRequestSent
attr title "ARP request sent, count"
scalar AODVnormal.host[0].ipv4.arp arpRequestSent:sum(packetBytes) 0
attr source arpRequestSent
attr title "ARP request sent, sum(packetBytes)"
scalar AODVnormal.host[0].udp packetReceived:count 12
attr interpolationmode none
attr source packetReceived
attr title "packets received, count"
scalar AODVnormal.host[0].udp packetReceived:sum(packetBytes) 384
attr interpolationmode none
attr source packetReceived
attr title "packets received, sum(packetBytes)"
scalar AODVnormal.host[0].udp packetSent:count 3
attr interpolationmode none
attr source packetSent
attr title "packets sent, count"
scalar AODVnormal.host[0].udp packetSent:sum(packetBytes) 96
attr interpolationmode none
attr source packetSent
attr title "packets sent, sum(packetBytes)"
scalar AODVnormal.host[0].udp passedUpPk:count 12
attr interpolationmode none
attr source packetSentToUpper
attr title "packets passed up, count"
scalar AODVnormal.host[0].udp droppedPkWrongPort:count 0
attr interpolationmode none
attr source packetDropReasonIsNoPortFound(packetDropped)
attr title "packets dropped (wrong port), count"
scalar AODVnormal.host[0].udp droppedPkBadChecksum:count 0
attr interpolationmode none
attr source packetDropReasonIsIncorrectlyReceived(packetDropped)
attr title "packets dropped (checksum error), count"
scalar AODVnormal.host[1].lo[0].lo rcvdPkFromHl:count 0
attr interpolationmode none
attr source packetReceivedFromUpper
attr title "packets received from higher layer, count"
scalar AODVnormal.host[1].lo[0].lo rcvdPkFromHl:sum(packetBytes) 0
attr interpolationmode none
attr source packetReceivedFromUpper
attr title "packets received from higher layer, sum(packetBytes)"
scalar AODVnormal.host[1].lo[0].lo passedUpPk:count 0
attr interpolationmode none
attr source packetSentToUpper
attr title "packets passed to higher layer, count"
scalar AODVnormal.host[1].lo[0].lo passedUpPk:sum(packetBytes) 0
attr interpolationmode none
attr source packetSentToUpper
attr title "packets passed to higher layer, sum(packetBytes)"
scalar AODVnormal.host[1].wlan[0].mac.queue packetPopped:count 1
attr interpolationmode none
attr title "packet popped, count"
scalar AODVnormal.host[1].wlan[0].mac.queue packetPopped:sum(packetBytes) 52
attr interpolationmode none
attr title "packet popped, sum(packetBytes)"
statistic AODVnormal.host[1].wlan[0].mac.queue queueingTime:histogram
field count 1
field mean 0
field stddev -nan
field min 0
field max 0
field sum 0
field sqrsum 0
attr interpolationmode none
attr source queueingTime(packetPopped)
attr title "queueing times, histogram"
attr unit s
bin	-inf	0
bin	-0.5	0
bin	-0.48	0
bin	-0.46	0
bin	-0.44	0
bin	-0.42	0
bin	-0.4	0
bin	-0.38	0
bin	-0.36	0
bin	-0.34	0
bin	-0.32	0
bin	-0.3	0
bin	-0.28	0
bin	-0.26	0
bin	-0.24	0
bin	-0.22	0
bin	-0.2	0
bin	-0.18	0
bin	-0.16	0
bin	-0.14	0
bin	-0.12	0
bin	-0.1	0
bin	-0.08	0
bin	-0.06	0
bin	-0.04	0
bin	-0.02	0
bin	0	1
bin	0.02	0
bin	0.04	0
bin	0.06	0
bin	0.08	0
bin	0.1	0
bin	0.12	0
bin	0.14	0
bin	0.16	0
bin	0.18	0
bin	0.2	0
bin	0.22	0
bin	0.24	0
bin	0.26	0
bin	0.28	0
bin	0.3	0
bin	0.32	0
bin	0.34	0
bin	0.36	0
bin	0.38	0
bin	0.4	0
bin	0.42	0
bin	0.44	0
bin	0.46	0
bin	0.48	0
bin	0.5	0
scalar AODVnormal.host[1].wlan[0].mac.queue queueLength:max 1
attr interpolationmode sample-hold
attr source "count(packetPushed) - count(packetPopped) - count(packetRemoved) - count(packetDropped)"
attr title "queue length, max"
scalar AODVnormal.host[1].wlan[0].mac.queue queueLength:timeavg 0
attr interpolationmode sample-hold
attr source "count(packetPushed) - count(packetPopped) - count(packetRemoved) - count(packetDropped)"
attr title "queue length, timeavg"
scalar AODVnormal.host[1].wlan[0].mac.queue packetPushed:count 1
attr interpolationmode none
attr title "packet pushed, count"
scalar AODVnormal.host[1].wlan[0].mac.queue packetPushed:sum(packetBytes) 52
attr interpolationmode none
attr title "packet pushed, sum(packetBytes)"
scalar AODVnormal.host[1].wlan[0].mac.queue packetDropQueueOverflow:count 0
attr interpolationmode none
attr source packetDropReasonIsQueueOverflow(packetDropped)
attr title "packet drops: queue overflow, count"
scalar AODVnormal.host[1].wlan[0].mac.queue packetDropQueueOverflow:sum(packetBytes) 0
attr interpolationmode none
attr source packetDropReasonIsQueueOverflow(packetDropped)
attr title "packet drops: queue overflow, sum(packetBytes)"
scalar AODVnormal.host[1].wlan[0].mac.queue packetRemoved:count 0
attr interpolationmode none
attr title "packets removed, count"
scalar AODVnormal.host[1].wlan[0].mac.queue packetRemoved:sum(packetBytes) 0
attr interpolationmode none
attr title "packets removed, sum(packetBytes)"
scalar AODVnormal.host[1].wlan[0].mac rcvdPkFromLl:count 6
attr interpolationmode none
attr source packetReceivedFromLower
attr title "packets received from lower layer, count"
scalar AODVnormal.host[1].wlan[0].mac rcvdPkFromLl:sum(packetBytes) 450
attr interpolationmode none
attr source packetReceivedFromLower
attr title "packets received from lower layer, sum(packetBytes)"
scalar AODVnormal.host[1].wlan[0].mac sentDownPk:count 1
attr interpolationmode none
attr source packetSentToLower
attr title "packets sent to lower layer, count"
scalar AODVnormal.host[1].wlan[0].mac sentDownPk:sum(packetBytes) 75
attr interpolationmode none
attr source packetSentToLower
attr title "packets sent to lower layer, sum(packetBytes)"
scalar AODVnormal.host[1].wlan[0].mac rcvdPkFromHl:count 1
attr interpolationmode none
attr source packetReceivedFromUpper
attr title "packets received from higher layer, count"
scalar AODVnormal.host[1].wlan[0].mac rcvdPkFromHl:sum(packetBytes) 52
attr interpolationmode none
attr source packetReceivedFromUpper
attr title "packets received from higher layer, sum(packetBytes)"
scalar AODVnormal.host[1].wlan[0].mac passedUpPk:count 6
attr interpolationmode none
attr source packetSentToUpper
attr title "packets passed to higher layer, count"
scalar AODVnormal.host[1].wlan[0].mac passedUpPk:sum(packetBytes) 312
attr interpolationmode none
attr source packetSentToUpper
attr title "packets passed to higher layer, sum(packetBytes)"
scalar AODVnormal.host[1].wlan[0].mac packetDropIncorrectlyReceived:count 0
attr interpolationmode none
attr source packetDropReasonIsIncorrectlyReceived(packetDropped)
attr title "packet drop: incorrectly received, count"
scalar AODVnormal.host[1].wlan[0].mac packetDropIncorrectlyReceived:sum(packetBytes) 0
attr interpolationmode none
attr source packetDropReasonIsIncorrectlyReceived(packetDropped)
attr title "packet drop: incorrectly received, sum(packetBytes)"
scalar AODVnormal.host[1].wlan[0].mac packetDropInterfaceDown:count 0
attr interpolationmode none
attr source packetDropReasonIsInterfaceDown(packetDropped)
attr title "packet drop: interface down, count"
scalar AODVnormal.host[1].wlan[0].mac packetDropInterfaceDown:sum(packetBytes) 0
attr interpolationmode none
attr source packetDropReasonIsInterfaceDown(packetDropped)
attr title "packet drop: interface down, sum(packetBytes)"
scalar AODVnormal.host[1].wlan[0].mac packetDropNotAddressedToUs:count 0
attr interpolationmode none
attr source packetDropReasonIsNotAddressedToUs(packetDropped)
attr title "packet drop: not addressed to us, count"
scalar AODVnormal.host[1].wlan[0].mac packetDropNotAddressedToUs:sum(packetBytes) 0
attr interpolationmode none
attr source packetDropReasonIsNotAddressedToUs(packetDropped)
attr title "packet drop: not addressed to us, sum(packetBytes)"
scalar AODVnormal.host[1].wlan[0].mac linkBroken:count 0
attr interpolationmode none
attr source linkBroken
attr title "link break, count"
scalar AODVnormal.host[1].wlan[0].radio radioMode:count 3
attr interpolationmode sample-hold
attr source radioModeChanged
attr title "Radio mode, count"
scalar AODVnormal.host[1].wlan[0].radio receptionState:count 13
attr interpolationmode sample-hold
attr source receptionStateChanged
attr title "Radio reception state, count"
scalar AODVnormal.host[1].wlan[0].radio transmissionState:count 3
attr interpolationmode sample-hold
attr source transmissionStateChanged
attr title "Radio transmission state, count"
statistic AODVnormal.host[1].wlan[0].radio minSnir:histogram
field count 0
field mean -nan
field stddev nan
field min nan
field max nan
field sum 0
field sqrsum 0
attr source minimumSnir(packetSentToUpper)
attr title "Min SNIR, histogram"
bin	-inf	0
bin	0	0
bin	1	0
statistic AODVnormal.host[1].wlan[0].radio packetErrorRate:histogram
field count 6
field mean 0
field stddev 0
field min 0
field max 0
field sum 0
field sqrsum 0
attr source packetErrorRate(packetSentToUpper)
attr title "Packet error rate, histogram"
bin	-inf	0
bin	-0.5	0
bin	-0.48	0
bin	-0.46	0
bin	-0.44	0
bin	-0.42	0
bin	-0.4	0
bin	-0.38	0
bin	-0.36	0
bin	-0.34	0
bin	-0.32	0
bin	-0.3	0
bin	-0.28	0
bin	-0.26	0
bin	-0.24	0
bin	-0.22	0
bin	-0.2	0
bin	-0.18	0
bin	-0.16	0
bin	-0.14	0
bin	-0.12	0
bin	-0.1	0
bin	-0.08	0
bin	-0.06	0
bin	-0.04	0
bin	-0.02	0
bin	0	6
bin	0.02	0
bin	0.04	0
bin	0.06	0
bin	0.08	0
bin	0.1	0
bin	0.12	0
bin	0.14	0
bin	0.16	0
bin	0.18	0
bin	0.2	0
bin	0.22	0
bin	0.24	0
bin	0.26	0
bin	0.28	0
bin	0.3	0
bin	0.32	0
bin	0.34	0
bin	0.36	0
bin	0.38	0
bin	0.4	0
bin	0.42	0
bin	0.44	0
bin	0.46	0
bin	0.48	0
bin	0.5	0
statistic AODVnormal.host[1].wlan[0].radio bitErrorRate:histogram
field count 6
field mean 0
field stddev 0
field min 0
field max 0
field sum 0
field sqrsum 0
attr source bitErrorRate(packetSentToUpper)
attr title "Bit error rate, histogram"
bin	-inf	0
bin	-0.5	0
bin	-0.48	0
bin	-0.46	0
bin	-0.44	0
bin	-0.42	0
bin	-0.4	0
bin	-0.38	0
bin	-0.36	0
bin	-0.34	0
bin	-0.32	0
bin	-0.3	0
bin	-0.28	0
bin	-0.26	0
bin	-0.24	0
bin	-0.22	0
bin	-0.2	0
bin	-0.18	0
bin	-0.16	0
bin	-0.14	0
bin	-0.12	0
bin	-0.1	0
bin	-0.08	0
bin	-0.06	0
bin	-0.04	0
bin	-0.02	0
bin	0	6
bin	0.02	0
bin	0.04	0
bin	0.06	0
bin	0.08	0
bin	0.1	0
bin	0.12	0
bin	0.14	0
bin	0.16	0
bin	0.18	0
bin	0.2	0
bin	0.22	0
bin	0.24	0
bin	0.26	0
bin	0.28	0
bin	0.3	0
bin	0.32	0
bin	0.34	0
bin	0.36	0
bin	0.38	0
bin	0.4	0
bin	0.42	0
bin	0.44	0
bin	0.46	0
bin	0.48	0
bin	0.5	0
statistic AODVnormal.host[1].wlan[0].radio symbolErrorRate:histogram
field count 6
field mean 0
field stddev 0
field min 0
field max 0
field sum 0
field sqrsum 0
attr source symbolErrorRate(packetSentToUpper)
attr title "Symbol error rate, histogram"
bin	-inf	0
bin	-0.5	0
bin	-0.48	0
bin	-0.46	0
bin	-0.44	0
bin	-0.42	0
bin	-0.4	0
bin	-0.38	0
bin	-0.36	0
bin	-0.34	0
bin	-0.32	0
bin	-0.3	0
bin	-0.28	0
bin	-0.26	0
bin	-0.24	0
bin	-0.22	0
bin	-0.2	0
bin	-0.18	0
bin	-0.16	0
bin	-0.14	0
bin	-0.12	0
bin	-0.1	0
bin	-0.08	0
bin	-0.06	0
bin	-0.04	0
bin	-0.02	0
bin	0	6
bin	0.02	0
bin	0.04	0
bin	0.06	0
bin	0.08	0
bin	0.1	0
bin	0.12	0
bin	0.14	0
bin	0.16	0
bin	0.18	0
bin	0.2	0
bin	0.22	0
bin	0.24	0
bin	0.26	0
bin	0.28	0
bin	0.3	0
bin	0.32	0
bin	0.34	0
bin	0.36	0
bin	0.38	0
bin	0.4	0
bin	0.42	0
bin	0.44	0
bin	0.46	0
bin	0.48	0
bin	0.5	0
scalar AODVnormal.host[1].ipv4.ip packetDropAddressResolutionFailed:count 0
attr interpolationmode none
attr source packetDropReasonIsAddressResolutionFailed(packetDropped)
attr title "packet drop: address resolution failed, count"
scalar AODVnormal.host[1].ipv4.ip packetDropAddressResolutionFailed:sum(packetBytes) 0
attr interpolationmode none
attr source packetDropReasonIsAddressResolutionFailed(packetDropped)
attr title "packet drop: address resolution failed, sum(packetBytes)"
scalar AODVnormal.host[1].ipv4.ip packetDropHopLimitReached:count 0
attr interpolationmode none
attr source packetDropReasonIsHopLimitReached(packetDropped)
attr title "packet drop: hop limit reached, count"
scalar AODVnormal.host[1].ipv4.ip packetDropHopLimitReached:sum(packetBytes) 0
attr interpolationmode none
attr source packetDropReasonIsHopLimitReached(packetDropped)
attr title "packet drop: hop limit reached, sum(packetBytes)"
scalar AODVnormal.host[1].ipv4.ip packetDropForwardingDisabled:count 0
attr interpolationmode none
attr source packetDropReasonIsForwardingDisabled(packetDropped)
attr title "packet drop: forwarding disabled, count"
scalar AODVnormal.host[1].ipv4.ip packetDropForwardingDisabled:sum(packetBytes) 0
attr interpolationmode none
attr source packetDropReasonIsForwardingDisabled(packetDropped)
attr title "packet drop: forwarding disabled, sum(packetBytes)"
scalar AODVnormal.host[1].ipv4.ip packetDropNoInterfaceFound:count 0
attr interpolationmode none
attr source packetDropReasonIsNoInterfaceFound(packetDropped)
attr title "packet drop: no interface found, count"
scalar AODVnormal.host[1].ipv4.ip packetDropNoInterfaceFound:sum(packetBytes) 0
attr interpolationmode none
attr source packetDropReasonIsNoInterfaceFound(packetDropped)
attr title "packet drop: no interface found, sum(packetBytes)"
scalar AODVnormal.host[1].ipv4.ip packetDropNoRouteFound:count 0
attr interpolationmode none
attr source packetDropReasonIsNoRouteFound(packetDropped)
attr title "packet drop: no route found, count"
scalar AODVnormal.host[1].ipv4.ip packetDropNoRouteFound:sum(packetBytes) 0
attr interpolationmode none
attr source packetDropReasonIsNoRouteFound(packetDropped)
attr title "packet drop: no route found, sum(packetBytes)"
scalar AODVnormal.host[1].ipv4.ip packetDropUndefined:count 0
attr interpolationmode none
attr source packetDropReasonIsUndefined(packetDropped)
attr title "packet drop: undefined, count"
scalar AODVnormal.host[1].ipv4.ip packetDropUndefined:sum(packetBytes) 0
attr interpolationmode none
attr source packetDropReasonIsUndefined(packetDropped)
attr title "packet drop: undefined, sum(packetBytes)"
scalar AODVnormal.host[1].ipv4.arp arpResolutionFailed:count 0
attr title "ARP failed resolutions, count"
scalar AODVnormal.host[1].ipv4.arp arpResolutionCompleted:count 0
attr title "ARP completed resolutions, count"
scalar AODVnormal.host[1].ipv4.arp arpResolutionInitiated:count 0
attr title "ARP initiated resolutions, count"
scalar AODVnormal.host[1].ipv4.arp arpReplySent:count 0
attr source arpReplySent
attr title "ARP replies sent, count"
scalar AODVnormal.host[1].ipv4.arp arpReplySent:sum(packetBytes) 0
attr source arpReplySent
attr title "ARP replies sent, sum(packetBytes)"
scalar AODVnormal.host[1].ipv4.arp arpRequestSent:count 0
attr source arpRequestSent
attr title "ARP request sent, count"
scalar AODVnormal.host[1].ipv4.arp arpRequestSent:sum(packetBytes) 0
attr source arpRequestSent
attr title "ARP request sent, sum(packetBytes)"
scalar AODVnormal.host[1].udp packetReceived:count 6
attr interpolationmode none
attr source packetReceived
attr title "packets received, count"
scalar AODVnormal.host[1].udp packetReceived:sum(packetBytes) 192
attr interpolationmode none
attr source packetReceived
attr title "packets received, sum(packetBytes)"
scalar AODVnormal.host[1].udp packetSent:count 1
attr interpolationmode none
attr source packetSent
attr title "packets sent, count"
scalar AODVnormal.host[1].udp packetSent:sum(packetBytes) 32
attr interpolationmode none
attr source packetSent
attr title "packets sent, sum(packetBytes)"
scalar AODVnormal.host[1].udp passedUpPk:count 6
attr interpolationmode none
attr source packetSentToUpper
attr title "packets passed up, count"
scalar AODVnormal.host[1].udp droppedPkWrongPort:count 0
attr interpolationmode none
attr source packetDropReasonIsNoPortFound(packetDropped)
attr title "packets dropped (wrong port), count"
scalar AODVnormal.host[1].udp droppedPkBadChecksum:count 0
attr interpolationmode none
attr source packetDropReasonIsIncorrectlyReceived(packetDropped)
attr title "packets dropped (checksum error), count"
scalar AODVnormal.host[2].lo[0].lo rcvdPkFromHl:count 0
attr interpolationmode none
attr source packetReceivedFromUpper
attr title "packets received from higher layer, count"
scalar AODVnormal.host[2].lo[0].lo rcvdPkFromHl:sum(packetBytes) 0
attr interpolationmode none
attr source packetReceivedFromUpper
attr title "packets received from higher layer, sum(packetBytes)"
scalar AODVnormal.host[2].lo[0].lo passedUpPk:count 0
attr interpolationmode none
attr source packetSentToUpper
attr title "packets passed to higher layer, count"
scalar AODVnormal.host[2].lo[0].lo passedUpPk:sum(packetBytes) 0
attr interpolationmode none
attr source packetSentToUpper
attr title "packets passed to higher layer, sum(packetBytes)"
scalar AODVnormal.host[2].wlan[0].mac.queue packetPopped:count 9
attr interpolationmode none
attr title "packet popped, count"
scalar AODVnormal.host[2].wlan[0].mac.queue packetPopped:sum(packetBytes) 364
attr interpolationmode none
attr title "packet popped, sum(packetBytes)"
statistic AODVnormal.host[2].wlan[0].mac.queue queueingTime:histogram
field count 9
field mean 0
field stddev 0
field min 0
field max 0
field sum 0
field sqrsum 0
attr interpolationmode none
attr source queueingTime(packetPopped)
attr title "queueing times, histogram"
attr unit s
bin	-inf	0
bin	-0.5	0
bin	-0.48	0
bin	-0.46	0
bin	-0.44	0
bin	-0.42	0
bin	-0.4	0
bin	-0.38	0
bin	-0.36	0
bin	-0.34	0
bin	-0.32	0
bin	-0.3	0
bin	-0.28	0
bin	-0.26	0
bin	-0.24	0
bin	-0.22	0
bin	-0.2	0
bin	-0.18	0
bin	-0.16	0
bin	-0.14	0
bin	-0.12	0
bin	-0.1	0
bin	-0.08	0
bin	-0.06	0
bin	-0.04	0
bin	-0.02	0
bin	0	9
bin	0.02	0
bin	0.04	0
bin	0.06	0
bin	0.08	0
bin	0.1	0
bin	0.12	0
bin	0.14	0
bin	0.16	0
bin	0.18	0
bin	0.2	0
bin	0.22	0
bin	0.24	0
bin	0.26	0
bin	0.28	0
bin	0.3	0
bin	0.32	0
bin	0.34	0
bin	0.36	0
bin	0.38	0
bin	0.4	0
bin	0.42	0
bin	0.44	0
bin	0.46	0
bin	0.48	0
bin	0.5	0
scalar AODVnormal.host[2].wlan[0].mac.queue queueLength:max 1
attr interpolationmode sample-hold
attr source "count(packetPushed) - count(packetPopped) - count(packetRemoved) - count(packetDropped)"
attr title "queue length, max"
scalar AODVnormal.host[2].wlan[0].mac.queue queueLength:timeavg 0
attr interpolationmode sample-hold
attr source "count(packetPushed) - count(packetPopped) - count(packetRemoved) - count(packetDropped)"
attr title "queue length, timeavg"
scalar AODVnormal.host[2].wlan[0].mac.queue packetPushed:count 9
attr interpolationmode none
attr title "packet pushed, count"
scalar AODVnormal.host[2].wlan[0].mac.queue packetPushed:sum(packetBytes) 364
attr interpolationmode none
attr title "packet pushed, sum(packetBytes)"
scalar AODVnormal.host[2].wlan[0].mac.queue packetDropQueueOverflow:count 0
attr interpolationmode none
attr source packetDropReasonIsQueueOverflow(packetDropped)
attr title "packet drops: queue overflow, count"
scalar AODVnormal.host[2].wlan[0].mac.queue packetDropQueueOverflow:sum(packetBytes) 0
attr interpolationmode none
attr source packetDropReasonIsQueueOverflow(packetDropped)
attr title "packet drops: queue overflow, sum(packetBytes)"
scalar AODVnormal.host[2].wlan[0].mac.queue packetRemoved:count 0
attr interpolationmode none
attr title "packets removed, count"
scalar AODVnormal.host[2].wlan[0].mac.queue packetRemoved:sum(packetBytes) 0
attr interpolationmode none
attr title "packets removed, sum(packetBytes)"
scalar AODVnormal.host[2].wlan[0].mac rcvdPkFromLl:count 641
attr interpolationmode none
attr source packetReceivedFromLower
attr title "packets received from lower layer, count"
scalar AODVnormal.host[2].wlan[0].mac rcvdPkFromLl:sum(packetBytes) 631215
attr interpolationmode none
attr source packetReceivedFromLower
attr title "packets received from lower layer, sum(packetBytes)"
scalar AODVnormal.host[2].wlan[0].mac sentDownPk:count 9
attr interpolationmode none
attr source packetSentToLower
attr title "packets sent to lower layer, count"
scalar AODVnormal.host[2].wlan[0].mac sentDownPk:sum(packetBytes) 571
attr interpolationmode none
attr source packetSentToLower
attr title "packets sent to lower layer, sum(packetBytes)"
scalar AODVnormal.host[2].wlan[0].mac rcvdPkFromHl:count 9
attr interpolationmode none
attr source packetReceivedFromUpper
attr title "packets received from higher layer, count"
scalar AODVnormal.host[2].wlan[0].mac rcvdPkFromHl:sum(packetBytes) 364
attr interpolationmode none
attr source packetReceivedFromUpper
attr title "packets received from higher layer, sum(packetBytes)"
scalar AODVnormal.host[2].wlan[0].mac passedUpPk:count 29
attr interpolationmode none
attr source packetSentToUpper
attr title "packets passed to higher layer, count"
scalar AODVnormal.host[2].wlan[0].mac passedUpPk:sum(packetBytes) 1236
attr interpolationmode none
attr source packetSentToUpper
attr title "packets passed to higher layer, sum(packetBytes)"
scalar AODVnormal.host[2].wlan[0].mac packetDropIncorrectlyReceived:count 0
attr interpolationmode none
attr source packetDropReasonIsIncorrectlyReceived(packetDropped)
attr title "packet drop: incorrectly received, count"
scalar AODVnormal.host[2].wlan[0].mac packetDropIncorrectlyReceived:sum(packetBytes) 0
attr interpolationmode none
attr source packetDropReasonIsIncorrectlyReceived(packetDropped)
attr title "packet drop: incorrectly received, sum(packetBytes)"
scalar AODVnormal.host[2].wlan[0].mac packetDropInterfaceDown:count 0
attr interpolationmode none
attr source packetDropReasonIsInterfaceDown(packetDropped)
attr title "packet drop: interface down, count"
scalar AODVnormal.host[2].wlan[0].mac packetDropInterfaceDown:sum(packetBytes) 0
attr interpolationmode none
attr source packetDropReasonIsInterfaceDown(packetDropped)
attr title "packet drop: interface down, sum(packetBytes)"
scalar AODVnormal.host[2].wlan[0].mac packetDropNotAddressedToUs:count 612
attr interpolationmode none
attr source packetDropReasonIsNotAddressedToUs(packetDropped)
attr title "packet drop: not addressed to us, count"
scalar AODVnormal.host[2].wlan[0].mac packetDropNotAddressedToUs:sum(packetBytes) 629312
attr interpolationmode none
attr source packetDropReasonIsNotAddressedToUs(packetDropped)
attr title "packet drop: not addressed to us, sum(packetBytes)"
scalar AODVnormal.host[2].wlan[0].mac linkBroken:count 1
attr interpolationmode none
attr source linkBroken
attr title "link break, count"
scalar AODVnormal.host[2].wlan[0].radio radioMode:count 3
attr interpolationmode sample-hold
attr source radioModeChanged
attr title "Radio mode, count"
scalar AODVnormal.host[2].wlan[0].radio receptionState:count 1289
attr interpolationmode sample-hold
attr source receptionStateChanged
attr title "Radio reception state, count"
scalar AODVnormal.host[2].wlan[0].radio transmissionState:count 19
attr interpolationmode sample-hold
attr source transmissionStateChanged
attr title "Radio transmission state, count"
statistic AODVnormal.host[2].wlan[0].radio minSnir:histogram
field count 0
field mean -nan
field stddev nan
field min nan
field max nan
field sum 0
field sqrsum 0
attr source minimumSnir(packetSentToUpper)
attr title "Min SNIR, histogram"
bin	-inf	0
bin	0	0
bin	1	0
statistic AODVnormal.host[2].wlan[0].radio packetErrorRate:histogram
field count 641
field mean 0.014040561622465
field stddev 0.11774996646362
field min 0
field max 1
field sum 9
field sqrsum 9
attr source packetErrorRate(packetSentToUpper)
attr title "Packet error rate, histogram"
bin	-inf	0
bin	0	632
bin	1	9
bin	2	0
statistic AODVnormal.host[2].wlan[0].radio bitErrorRate:histogram
field count 641
field mean 0.014040561622465
field stddev 0.11774996646362
field min 0
field max 1
field sum 9
field sqrsum 9
attr source bitErrorRate(packetSentToUpper)
attr title "Bit error rate, histogram"
bin	-inf	0
bin	0	632
bin	1	9
bin	2	0
statistic AODVnormal.host[2].wlan[0].radio symbolErrorRate:histogram
field count 641
field mean 0.014040561622465
field stddev 0.11774996646362
field min 0
field max 1
field sum 9
field sqrsum 9
attr source symbolErrorRate(packetSentToUpper)
attr title "Symbol error rate, histogram"
bin	-inf	0
bin	0	632
bin	1	9
bin	2	0
scalar AODVnormal.host[2].ipv4.ip packetDropAddressResolutionFailed:count 0
attr interpolationmode none
attr source packetDropReasonIsAddressResolutionFailed(packetDropped)
attr title "packet drop: address resolution failed, count"
scalar AODVnormal.host[2].ipv4.ip packetDropAddressResolutionFailed:sum(packetBytes) 0
attr interpolationmode none
attr source packetDropReasonIsAddressResolutionFailed(packetDropped)
attr title "packet drop: address resolution failed, sum(packetBytes)"
scalar AODVnormal.host[2].ipv4.ip packetDropHopLimitReached:count 0
attr interpolationmode none
attr source packetDropReasonIsHopLimitReached(packetDropped)
attr title "packet drop: hop limit reached, count"
scalar AODVnormal.host[2].ipv4.ip packetDropHopLimitReached:sum(packetBytes) 0
attr interpolationmode none
attr source packetDropReasonIsHopLimitReached(packetDropped)
attr title "packet drop: hop limit reached, sum(packetBytes)"
scalar AODVnormal.host[2].ipv4.ip packetDropForwardingDisabled:count 0
attr interpolationmode none
attr source packetDropReasonIsForwardingDisabled(packetDropped)
attr title "packet drop: forwarding disabled, count"
scalar AODVnormal.host[2].ipv4.ip packetDropForwardingDisabled:sum(packetBytes) 0
attr interpolationmode none
attr source packetDropReasonIsForwardingDisabled(packetDropped)
attr title "packet drop: forwarding disabled, sum(packetBytes)"
scalar AODVnormal.host[2].ipv4.ip packetDropNoInterfaceFound:count 0
attr interpolationmode none
attr source packetDropReasonIsNoInterfaceFound(packetDropped)
attr title "packet drop: no interface found, count"
scalar AODVnormal.host[2].ipv4.ip packetDropNoInterfaceFound:sum(packetBytes) 0
attr interpolationmode none
attr source packetDropReasonIsNoInterfaceFound(packetDropped)
attr title "packet drop: no interface found, sum(packetBytes)"
scalar AODVnormal.host[2].ipv4.ip packetDropNoRouteFound:count 0
attr interpolationmode none
attr source packetDropReasonIsNoRouteFound(packetDropped)
attr title "packet drop: no route found, count"
scalar AODVnormal.host[2].ipv4.ip packetDropNoRouteFound:sum(packetBytes) 0
attr interpolationmode none
attr source packetDropReasonIsNoRouteFound(packetDropped)
attr title "packet drop: no route found, sum(packetBytes)"
scalar AODVnormal.host[2].ipv4.ip packetDropUndefined:count 0
attr interpolationmode none
attr source packetDropReasonIsUndefined(packetDropped)
attr title "packet drop: undefined, count"
scalar AODVnormal.host[2].ipv4.ip packetDropUndefined:sum(packetBytes) 0
attr interpolationmode none
attr source packetDropReasonIsUndefined(packetDropped)
attr title "packet drop: undefined, sum(packetBytes)"
scalar AODVnormal.host[2].ipv4.arp arpResolutionFailed:count 0
attr title "ARP failed resolutions, count"
scalar AODVnormal.host[2].ipv4.arp arpResolutionCompleted:count 7
attr title "ARP completed resolutions, count"
scalar AODVnormal.host[2].ipv4.arp arpResolutionInitiated:count 1
attr title "ARP initiated resolutions, count"
scalar AODVnormal.host[2].ipv4.arp arpReplySent:count 3
attr source arpReplySent
attr title "ARP replies sent, count"
scalar AODVnormal.host[2].ipv4.arp arpReplySent:sum(packetBytes) 84
attr source arpReplySent
attr title "ARP replies sent, sum(packetBytes)"
scalar AODVnormal.host[2].ipv4.arp arpRequestSent:count 1
attr source arpRequestSent
attr title "ARP request sent, count"
scalar AODVnormal.host[2].ipv4.arp arpRequestSent:sum(packetBytes) 28
attr source arpRequestSent
attr title "ARP request sent, sum(packetBytes)"
scalar AODVnormal.host[2].udp packetReceived:count 18
attr interpolationmode none
attr source packetReceived
attr title "packets received, count"
scalar AODVnormal.host[2].udp packetReceived:sum(packetBytes) 568
attr interpolationmode none
attr source packetReceived
attr title "packets received, sum(packetBytes)"
scalar AODVnormal.host[2].udp packetSent:count 5
attr interpolationmode none
attr source packetSent
attr title "packets sent, count"
scalar AODVnormal.host[2].udp packetSent:sum(packetBytes) 152
attr interpolationmode none
attr source packetSent
attr title "packets sent, sum(packetBytes)"
scalar AODVnormal.host[2].udp passedUpPk:count 18
attr interpolationmode none
attr source packetSentToUpper
attr title "packets passed up, count"
scalar AODVnormal.host[2].udp droppedPkWrongPort:count 0
attr interpolationmode none
attr source packetDropReasonIsNoPortFound(packetDropped)
attr title "packets dropped (wrong port), count"
scalar AODVnormal.host[2].udp droppedPkBadChecksum:count 0
attr interpolationmode none
attr source packetDropReasonIsIncorrectlyReceived(packetDropped)
attr title "packets dropped (checksum error), count"
scalar AODVnormal.host[3].lo[0].lo rcvdPkFromHl:count 0
attr interpolationmode none
attr source packetReceivedFromUpper
attr title "packets received from higher layer, count"
scalar AODVnormal.host[3].lo[0].lo rcvdPkFromHl:sum(packetBytes) 0
attr interpolationmode none
attr source packetReceivedFromUpper
attr title "packets received from higher layer, sum(packetBytes)"
scalar AODVnormal.host[3].lo[0].lo passedUpPk:count 0
attr interpolationmode none
attr source packetSentToUpper
attr title "packets passed to higher layer, count"
scalar AODVnormal.host[3].lo[0].lo passedUpPk:sum(packetBytes) 0
attr interpolationmode none
attr source packetSentToUpper
attr title "packets passed to higher layer, sum(packetBytes)"
scalar AODVnormal.host[3].wlan[0].mac.queue packetPopped:count 2
attr interpolationmode none
attr title "packet popped, count"
scalar AODVnormal.host[3].wlan[0].mac.queue packetPopped:sum(packetBytes) 104
attr interpolationmode none
attr title "packet popped, sum(packetBytes)"
statistic AODVnormal.host[3].wlan[0].mac.queue queueingTime:histogram
field count 2
field mean 0
field stddev 0
field min 0
field max 0
field sum 0
field sqrsum 0
attr interpolationmode none
attr source queueingTime(packetPopped)
attr title "queueing times, histogram"
attr unit s
bin	-inf	0
bin	-0.5	0
bin	-0.48	0
bin	-0.46	0
bin	-0.44	0
bin	-0.42	0
bin	-0.4	0
bin	-0.38	0
bin	-0.36	0
bin	-0.34	0
bin	-0.32	0
bin	-0.3	0
bin	-0.28	0
bin	-0.26	0
bin	-0.24	0
bin	-0.22	0
bin	-0.2	0
bin	-0.18	0
bin	-0.16	0
bin	-0.14	0
bin	-0.12	0
bin	-0.1	0
bin	-0.08	0
bin	-0.06	0
bin	-0.04	0
bin	-0.02	0
bin	0	2
bin	0.02	0
bin	0.04	0
bin	0.06	0
bin	0.08	0
bin	0.1	0
bin	0.12	0
bin	0.14	0
bin	0.16	0
bin	0.18	0
bin	0.2	0
bin	0.22	0
bin	0.24	0
bin	0.26	0
bin	0.28	0
bin	0.3	0
bin	0.32	0
bin	0.34	0
bin	0.36	0
bin	0.38	0
bin	0.4	0
bin	0.42	0
bin	0.44	0
bin	0.46	0
bin	0.48	0
bin	0.5	0
scalar AODVnormal.host[3].wlan[0].mac.queue queueLength:max 1
attr interpolationmode sample-hold
attr source "count(packetPushed) - count(packetPopped) - count(packetRemoved) - count(packetDropped)"
attr title "queue length, max"
scalar AODVnormal.host[3].wlan[0].mac.queue queueLength:timeavg 0
attr interpolationmode sample-hold
attr source "count(packetPushed) - count(packetPopped) - count(packetRemoved) - count(packetDropped)"
attr title "queue length, timeavg"
scalar AODVnormal.host[3].wlan[0].mac.queue packetPushed:count 2
attr interpolationmode none
attr title "packet pushed, count"
scalar AODVnormal.host[3].wlan[0].mac.queue packetPushed:sum(packetBytes) 104
attr interpolationmode none
attr title "packet pushed, sum(packetBytes)"
scalar AODVnormal.host[3].wlan[0].mac.queue packetDropQueueOverflow:count 0
attr interpolationmode none
attr source packetDropReasonIsQueueOverflow(packetDropped)
attr title "packet drops: queue overflow, count"
scalar AODVnormal.host[3].wlan[0].mac.queue packetDropQueueOverflow:sum(packetBytes) 0
attr interpolationmode none
attr source packetDropReasonIsQueueOverflow(packetDropped)
attr title "packet drops: queue overflow, sum(packetBytes)"
scalar AODVnormal.host[3].wlan[0].mac.queue packetRemoved:count 0
attr interpolationmode none
attr title "packets removed, count"
scalar AODVnormal.host[3].wlan[0].mac.queue packetRemoved:sum(packetBytes) 0
attr interpolationmode none
attr title "packets removed, sum(packetBytes)"
scalar AODVnormal.host[3].wlan[0].mac rcvdPkFromLl:count 228
attr interpolationmode none
attr source packetReceivedFromLower
attr title "packets received from lower layer, count"
scalar AODVnormal.host[3].wlan[0].mac rcvdPkFromLl:sum(packetBytes) 211920
attr interpolationmode none
attr source packetReceivedFromLower
attr title "packets received from lower layer, sum(packetBytes)"
scalar AODVnormal.host[3].wlan[0].mac sentDownPk:count 2
attr interpolationmode none
attr source packetSentToLower
attr title "packets sent to lower layer, count"
scalar AODVnormal.host[3].wlan[0].mac sentDownPk:sum(packetBytes) 150
attr interpolationmode none
attr source packetSentToLower
attr title "packets sent to lower layer, sum(packetBytes)"
scalar AODVnormal.host[3].wlan[0].mac rcvdPkFromHl:count 2
attr interpolationmode none
attr source packetReceivedFromUpper
attr title "packets received from higher layer, count"
scalar AODVnormal.host[3].wlan[0].mac rcvdPkFromHl:sum(packetBytes) 104
attr interpolationmode none
attr source packetReceivedFromUpper
attr title "packets received from higher layer, sum(packetBytes)"
scalar AODVnormal.host[3].wlan[0].mac passedUpPk:count 18
attr interpolationmode none
attr source packetSentToUpper
attr title "packets passed to higher layer, count"
scalar AODVnormal.host[3].wlan[0].mac passedUpPk:sum(packetBytes) 696
attr interpolationmode none
attr source packetSentToUpper
attr title "packets passed to higher layer, sum(packetBytes)"
scalar AODVnormal.host[3].wlan[0].mac packetDropIncorrectlyReceived:count 0
attr interpolationmode none
attr source packetDropReasonIsIncorrectlyReceived(packetDropped)
attr title "packet drop: incorrectly received, count"
scalar AODVnormal.host[3].wlan[0].mac packetDropIncorrectlyReceived:sum(packetBytes) 0
attr interpolationmode none
attr source packetDropReasonIsIncorrectlyReceived(packetDropped)
attr title "packet drop: incorrectly received, sum(packetBytes)"
scalar AODVnormal.host[3].wlan[0].mac packetDropInterfaceDown:count 0
attr interpolationmode none
attr source packetDropReasonIsInterfaceDown(packetDropped)
attr title "packet drop: interface down, count"
scalar AODVnormal.host[3].wlan[0].mac packetDropInterfaceDown:sum(packetBytes) 0
attr interpolationmode none
attr source packetDropReasonIsInterfaceDown(packetDropped)
attr title "packet drop: interface down, sum(packetBytes)"
scalar AODVnormal.host[3].wlan[0].mac packetDropNotAddressedToUs:count 210
attr interpolationmode none
attr source packetDropReasonIsNotAddressedToUs(packetDropped)
attr title "packet drop: not addressed to us, count"
scalar AODVnormal.host[3].wlan[0].mac packetDropNotAddressedToUs:sum(packetBytes) 210810
attr interpolationmode none
attr source packetDropReasonIsNotAddressedToUs(packetDropped)
attr title "packet drop: not addressed to us, sum(packetBytes)"
scalar AODVnormal.host[3].wlan[0].mac linkBroken:count 0
attr interpolationmode none
attr source linkBroken
attr title "link break, count"
scalar AODVnormal.host[3].wlan[0].radio radioMode:count 3
attr interpolationmode sample-hold
attr source radioModeChanged
attr title "Radio mode, count"
scalar AODVnormal.host[3].wlan[0].radio receptionState:count 462
attr interpolationmode sample-hold
attr source receptionStateChanged
attr title "Radio reception state, count"
scalar AODVnormal.host[3].wlan[0].radio transmissionState:count 5
attr interpolationmode sample-hold
attr source transmissionStateChanged
attr title "Radio transmission state, count"
statistic AODVnormal.host[3].wlan[0].radio minSnir:histogram
field count 0
field mean -nan
field stddev nan
field min nan
field max nan
field sum 0
field sqrsum 0
attr source minimumSnir(packetSentToUpper)
attr title "Min SNIR, histogram"
bin	-inf	0
bin	0	0
bin	1	0
statistic AODVnormal.host[3].wlan[0].radio packetErrorRate:histogram
field count 228
field mean 0.026315789473684
field stddev 0.160424893747
field min 0
field max 1
field sum 6
field sqrsum 6
attr source packetErrorRate(packetSentToUpper)
attr title "Packet error rate, histogram"
bin	-inf	0
bin	0	222
bin	1	6
bin	2	0
statistic AODVnormal.host[3].wlan[0].radio bitErrorRate:histogram
field count 228
field mean 0.026315789473684
field stddev 0.160424893747
field min 0
field max 1
field sum 6
field sqrsum 6
attr source bitErrorRate(packetSentToUpper)
attr title "Bit error rate, histogram"
bin	-inf	0
bin	0	222
bin	1	6
bin	2	0
statistic AODVnormal.host[3].wlan[0].radio symbolErrorRate:histogram
field count 228
field mean 0.026315789473684
field stddev 0.160424893747
field min 0
field max 1
field sum 6
field sqrsum 6
attr source symbolErrorRate(packetSentToUpper)
attr title "Symbol error rate, histogram"
bin	-inf	0
bin	0	222
bin	1	6
bin	2	0
scalar AODVnormal.host[3].ipv4.ip packetDropAddressResolutionFailed:count 0
attr interpolationmode none
attr source packetDropReasonIsAddressResolutionFailed(packetDropped)
attr title "packet drop: address resolution failed, count"
scalar AODVnormal.host[3].ipv4.ip packetDropAddressResolutionFailed:sum(packetBytes) 0
attr interpolationmode none
attr source packetDropReasonIsAddressResolutionFailed(packetDropped)
attr title "packet drop: address resolution failed, sum(packetBytes)"
scalar AODVnormal.host[3].ipv4.ip packetDropHopLimitReached:count 0
attr interpolationmode none
attr source packetDropReasonIsHopLimitReached(packetDropped)
attr title "packet drop: hop limit reached, count"
scalar AODVnormal.host[3].ipv4.ip packetDropHopLimitReached:sum(packetBytes) 0
attr interpolationmode none
attr source packetDropReasonIsHopLimitReached(packetDropped)
attr title "packet drop: hop limit reached, sum(packetBytes)"
scalar AODVnormal.host[3].ipv4.ip packetDropForwardingDisabled:count 0
attr interpolationmode none
attr source packetDropReasonIsForwardingDisabled(packetDropped)
attr title "packet drop: forwarding disabled, count"
scalar AODVnormal.host[3].ipv4.ip packetDropForwardingDisabled:sum(packetBytes) 0
attr interpolationmode none
attr source packetDropReasonIsForwardingDisabled(packetDropped)
attr title "packet drop: forwarding disabled, sum(packetBytes)"
scalar AODVnormal.host[3].ipv4.ip packetDropNoInterfaceFound:count 0
attr interpolationmode none
attr source packetDropReasonIsNoInterfaceFound(packetDropped)
attr title "packet drop: no interface found, count"
scalar AODVnormal.host[3].ipv4.ip packetDropNoInterfaceFound:sum(packetBytes) 0
attr interpolationmode none
attr source packetDropReasonIsNoInterfaceFound(packetDropped)
attr title "packet drop: no interface found, sum(packetBytes)"
scalar AODVnormal.host[3].ipv4.ip packetDropNoRouteFound:count 0
attr interpolationmode none
attr source packetDropReasonIsNoRouteFound(packetDropped)
attr title "packet drop: no route found, count"
scalar AODVnormal.host[3].ipv4.ip packetDropNoRouteFound:sum(packetBytes) 0
attr interpolationmode none
attr source packetDropReasonIsNoRouteFound(packetDropped)
attr title "packet drop: no route found, sum(packetBytes)"
scalar AODVnormal.host[3].ipv4.ip packetDropUndefined:count 0
attr interpolationmode none
attr source packetDropReasonIsUndefined(packetDropped)
attr title "packet drop: undefined, count"
scalar AODVnormal.host[3].ipv4.ip packetDropUndefined:sum(packetBytes) 0
attr interpolationmode none
attr source packetDropReasonIsUndefined(packetDropped)
attr title "packet drop: undefined, sum(packetBytes)"
scalar AODVnormal.host[3].ipv4.arp arpResolutionFailed:count 0
attr title "ARP failed resolutions, count"
scalar AODVnormal.host[3].ipv4.arp arpResolutionCompleted:count 0
attr title "ARP completed resolutions, count"
scalar AODVnormal.host[3].ipv4.arp arpResolutionInitiated:count 0
attr title "ARP initiated resolutions, count"
scalar AODVnormal.host[3].ipv4.arp arpReplySent:count 0
attr source arpReplySent
attr title "ARP replies sent, count"
scalar AODVnormal.host[3].ipv4.arp arpReplySent:sum(packetBytes) 0
attr source arpReplySent
attr title "ARP replies sent, sum(packetBytes)"
scalar AODVnormal.host[3].ipv4.arp arpRequestSent:count 0
attr source arpRequestSent
attr title "ARP request sent, count"
scalar AODVnormal.host[3].ipv4.arp arpRequestSent:sum(packetBytes) 0
attr source arpRequestSent
attr title "ARP request sent, sum(packetBytes)"
scalar AODVnormal.host[3].udp packetReceived:count 8
attr interpolationmode none
attr source packetReceived
attr title "packets received, count"
scalar AODVnormal.host[3].udp packetReceived:sum(packetBytes) 256
attr interpolationmode none
attr source packetReceived
attr title "packets received, sum(packetBytes)"
scalar AODVnormal.host[3].udp packetSent:count 2
attr interpolationmode none
attr source packetSent
attr title "packets sent, count"
scalar AODVnormal.host[3].udp packetSent:sum(packetBytes) 64
attr interpolationmode none
attr source packetSent
attr title "packets sent, sum(packetBytes)"
scalar AODVnormal.host[3].udp passedUpPk:count 8
attr interpolationmode none
attr source packetSentToUpper
attr title "packets passed up, count"
scalar AODVnormal.host[3].udp droppedPkWrongPort:count 0
attr interpolationmode none
attr source packetDropReasonIsNoPortFound(packetDropped)
attr title "packets dropped (wrong port), count"
scalar AODVnormal.host[3].udp droppedPkBadChecksum:count 0
attr interpolationmode none
attr source packetDropReasonIsIncorrectlyReceived(packetDropped)
attr title "packets dropped (checksum error), count"
scalar AODVnormal.host[4].lo[0].lo rcvdPkFromHl:count 0
attr interpolationmode none
attr source packetReceivedFromUpper
attr title "packets received from higher layer, count"
scalar AODVnormal.host[4].lo[0].lo rcvdPkFromHl:sum(packetBytes) 0
attr interpolationmode none
attr source packetReceivedFromUpper
attr title "packets received from higher layer, sum(packetBytes)"
scalar AODVnormal.host[4].lo[0].lo passedUpPk:count 0
attr interpolationmode none
attr source packetSentToUpper
attr title "packets passed to higher layer, count"
scalar AODVnormal.host[4].lo[0].lo passedUpPk:sum(packetBytes) 0
attr interpolationmode none
attr source packetSentToUpper
attr title "packets passed to higher layer, sum(packetBytes)"
scalar AODVnormal.host[4].wlan[0].mac.queue packetPopped:count 2
attr interpolationmode none
attr title "packet popped, count"
scalar AODVnormal.host[4].wlan[0].mac.queue packetPopped:sum(packetBytes) 104
attr interpolationmode none
attr title "packet popped, sum(packetBytes)"
statistic AODVnormal.host[4].wlan[0].mac.queue queueingTime:histogram
field count 2
field mean 0
field stddev 0
field min 0
field max 0
field sum 0
field sqrsum 0
attr interpolationmode none
attr source queueingTime(packetPopped)
attr title "queueing times, histogram"
attr unit s
bin	-inf	0
bin	-0.5	0
bin	-0.48	0
bin	-0.46	0
bin	-0.44	0
bin	-0.42	0
bin	-0.4	0
bin	-0.38	0
bin	-0.36	0
bin	-0.34	0
bin	-0.32	0
bin	-0.3	0
bin	-0.28	0
bin	-0.26	0
bin	-0.24	0
bin	-0.22	0
bin	-0.2	0
bin	-0.18	0
bin	-0.16	0
bin	-0.14	0
bin	-0.12	0
bin	-0.1	0
bin	-0.08	0
bin	-0.06	0
bin	-0.04	0
bin	-0.02	0
bin	0	2
bin	0.02	0
bin	0.04	0
bin	0.06	0
bin	0.08	0
bin	0.1	0
bin	0.12	0
bin	0.14	0
bin	0.16	0
bin	0.18	0
bin	0.2	0
bin	0.22	0
bin	0.24	0
bin	0.26	0
bin	0.28	0
bin	0.3	0
bin	0.32	0
bin	0.34	0
bin	0.36	0
bin	0.38	0
bin	0.4	0
bin	0.42	0
bin	0.44	0
bin	0.46	0
bin	0.48	0
bin	0.5	0
scalar AODVnormal.host[4].wlan[0].mac.queue queueLength:max 1
attr interpolationmode sample-hold
attr source "count(packetPushed) - count(packetPopped) - count(packetRemoved) - count(packetDropped)"
attr title "queue length, max"
scalar AODVnormal.host[4].wlan[0].mac.queue queueLength:timeavg 0
attr interpolationmode sample-hold
attr source "count(packetPushed) - count(packetPopped) - count(packetRemoved) - count(packetDropped)"
attr title "queue length, timeavg"
scalar AODVnormal.host[4].wlan[0].mac.queue packetPushed:count 2
attr interpolationmode none
attr title "packet pushed, count"
scalar AODVnormal.host[4].wlan[0].mac.queue packetPushed:sum(packetBytes) 104
attr interpolationmode none
attr title "packet pushed, sum(packetBytes)"
scalar AODVnormal.host[4].wlan[0].mac.queue packetDropQueueOverflow:count 0
attr interpolationmode none
attr source packetDropReasonIsQueueOverflow(packetDropped)
attr title "packet drops: queue overflow, count"
scalar AODVnormal.host[4].wlan[0].mac.queue packetDropQueueOverflow:sum(packetBytes) 0
attr interpolationmode none
attr source packetDropReasonIsQueueOverflow(packetDropped)
attr title "packet drops: queue overflow, sum(packetBytes)"
scalar AODVnormal.host[4].wlan[0].mac.queue packetRemoved:count 0
attr interpolationmode none
attr title "packets removed, count"
scalar AODVnormal.host[4].wlan[0].mac.queue packetRemoved:sum(packetBytes) 0
attr interpolationmode none
attr title "packets removed, sum(packetBytes)"
scalar AODVnormal.host[4].wlan[0].mac rcvdPkFromLl:count 3
attr interpolationmode none
attr source packetReceivedFromLower
attr title "packets received from lower layer, count"
scalar AODVnormal.host[4].wlan[0].mac rcvdPkFromLl:sum(packetBytes) 225
attr interpolationmode none
attr source packetReceivedFromLower
attr title "packets received from lower layer, sum(packetBytes)"
scalar AODVnormal.host[4].wlan[0].mac sentDownPk:count 2
attr interpolationmode none
attr source packetSentToLower
attr title "packets sent to lower layer, count"
scalar AODVnormal.host[4].wlan[0].mac sentDownPk:sum(packetBytes) 150
attr interpolationmode none
attr source packetSentToLower
attr title "packets sent to lower layer, sum(packetBytes)"
scalar AODVnormal.host[4].wlan[0].mac rcvdPkFromHl:count 2
attr interpolationmode none
attr source packetReceivedFromUpper
attr title "packets received from higher layer, count"
scalar AODVnormal.host[4].wlan[0].mac rcvdPkFromHl:sum(packetBytes) 104
attr interpolationmode none
attr source packetReceivedFromUpper
attr title "packets received from higher layer, sum(packetBytes)"
scalar AODVnormal.host[4].wlan[0].mac passedUpPk:count 3
attr interpolationmode none
attr source packetSentToUpper
attr title "packets passed to higher layer, count"
scalar AODVnormal.host[4].wlan[0].mac passedUpPk:sum(packetBytes) 156
attr interpolationmode none
attr source packetSentToUpper
attr title "packets passed to higher layer, sum(packetBytes)"
scalar AODVnormal.host[4].wlan[0].mac packetDropIncorrectlyReceived:count 0
attr interpolationmode none
attr source packetDropReasonIsIncorrectlyReceived(packetDropped)
attr title "packet drop: incorrectly received, count"
scalar AODVnormal.host[4].wlan[0].mac packetDropIncorrectlyReceived:sum(packetBytes) 0
attr interpolationmode none
attr source packetDropReasonIsIncorrectlyReceived(packetDropped)
attr title "packet drop: incorrectly received, sum(packetBytes)"
scalar AODVnormal.host[4].wlan[0].mac packetDropInterfaceDown:count 0
attr interpolationmode none
attr source packetDropReasonIsInterfaceDown(packetDropped)
attr title "packet drop: interface down, count"
scalar AODVnormal.host[4].wlan[0].mac packetDropInterfaceDown:sum(packetBytes) 0
attr interpolationmode none
attr source packetDropReasonIsInterfaceDown(packetDropped)
attr title "packet drop: interface down, sum(packetBytes)"
scalar AODVnormal.host[4].wlan[0].mac packetDropNotAddressedToUs:count 0
attr interpolationmode none
attr source packetDropReasonIsNotAddressedToUs(packetDropped)
attr title "packet drop: not addressed to us, count"
scalar AODVnormal.host[4].wlan[0].mac packetDropNotAddressedToUs:sum(packetBytes) 0
attr interpolationmode none
attr source packetDropReasonIsNotAddressedToUs(packetDropped)
attr title "packet drop: not addressed to us, sum(packetBytes)"
scalar AODVnormal.host[4].wlan[0].mac linkBroken:count 0
attr interpolationmode none
attr source linkBroken
attr title "link break, count"
scalar AODVnormal.host[4].wlan[0].radio radioMode:count 3
attr interpolationmode sample-hold
attr source radioModeChanged
attr title "Radio mode, count"
scalar AODVnormal.host[4].wlan[0].radio receptionState:count 8
attr interpolationmode sample-hold
attr source receptionStateChanged
attr title "Radio reception state, count"
scalar AODVnormal.host[4].wlan[0].radio transmissionState:count 5
attr interpolationmode sample-hold
attr source transmissionStateChanged
attr title "Radio transmission state, count"
statistic AODVnormal.host[4].wlan[0].radio minSnir:histogram
field count 0
field mean -nan
field stddev nan
field min nan
field max nan
field sum 0
field sqrsum 0
attr source minimumSnir(packetSentToUpper)
attr title "Min SNIR, histogram"
bin	-inf	0
bin	0	0
bin	1	0
statistic AODVnormal.host[4].wlan[0].radio packetErrorRate:histogram
field count 3
field mean 0.33333333333333
field stddev 0.57735026918963
field min 0
field max 1
field sum 1
field sqrsum 1
attr source packetErrorRate(packetSentToUpper)
attr title "Packet error rate, histogram"
bin	-inf	0
bin	0	2
bin	1	1
bin	2	0
statistic AODVnormal.host[4].wlan[0].radio bitErrorRate:histogram
field count 3
field mean 0.33333333333333
field stddev 0.57735026918963
field min 0
field max 1
field sum 1
field sqrsum 1
attr source bitErrorRate(packetSentToUpper)
attr title "Bit error rate, histogram"
bin	-inf	0
bin	0	2
bin	1	1
bin	2	0
statistic AODVnormal.host[4].wlan[0].radio symbolErrorRate:histogram
field count 3
field mean 0.33333333333333
field stddev 0.57735026918963
field min 0
field max 1
field sum 1
field sqrsum 1
attr source symbolErrorRate(packetSentToUpper)
attr title "Symbol error rate, histogram"
bin	-inf	0
bin	0	2
bin	1	1
bin	2	0
scalar AODVnormal.host[4].ipv4.ip packetDropAddressResolutionFailed:count 0
attr interpolationmode none
attr source packetDropReasonIsAddressResolutionFailed(packetDropped)
attr title "packet drop: address resolution failed, count"
scalar AODVnormal.host[4].ipv4.ip packetDropAddressResolutionFailed:sum(packetBytes) 0
attr interpolationmode none
attr source packetDropReasonIsAddressResolutionFailed(packetDropped)
attr title "packet drop: address resolution failed, sum(packetBytes)"
scalar AODVnormal.host[4].ipv4.ip packetDropHopLimitReached:count 0
attr interpolationmode none
attr source packetDropReasonIsHopLimitReached(packetDropped)
attr title "packet drop: hop limit reached, count"
scalar AODVnormal.host[4].ipv4.ip packetDropHopLimitReached:sum(packetBytes) 0
attr interpolationmode none
attr source packetDropReasonIsHopLimitReached(packetDropped)
attr title "packet drop: hop limit reached, sum(packetBytes)"
scalar AODVnormal.host[4].ipv4.ip packetDropForwardingDisabled:count 0
attr interpolationmode none
attr source packetDropReasonIsForwardingDisabled(packetDropped)
attr title "packet drop: forwarding disabled, count"
scalar AODVnormal.host[4].ipv4.ip packetDropForwardingDisabled:sum(packetBytes) 0
attr interpolationmode none
attr source packetDropReasonIsForwardingDisabled(packetDropped)
attr title "packet drop: forwarding disabled, sum(packetBytes)"
scalar AODVnormal.host[4].ipv4.ip packetDropNoInterfaceFound:count 0
attr interpolationmode none
attr source packetDropReasonIsNoInterfaceFound(packetDropped)
attr title "packet drop: no interface found, count"
scalar AODVnormal.host[4].ipv4.ip packetDropNoInterfaceFound:sum(packetBytes) 0
attr interpolationmode none
attr source packetDropReasonIsNoInterfaceFound(packetDropped)
attr title "packet drop: no interface found, sum(packetBytes)"
scalar AODVnormal.host[4].ipv4.ip packetDropNoRouteFound:count 0
attr interpolationmode none
attr source packetDropReasonIsNoRouteFound(packetDropped)
attr title "packet drop: no route found, count"
scalar AODVnormal.host[4].ipv4.ip packetDropNoRouteFound:sum(packetBytes) 0
attr interpolationmode none
attr source packetDropReasonIsNoRouteFound(packetDropped)
attr title "packet drop: no route found, sum(packetBytes)"
scalar AODVnormal.host[4].ipv4.ip packetDropUndefined:count 0
attr interpolationmode none
attr source packetDropReasonIsUndefined(packetDropped)
attr title "packet drop: undefined, count"
scalar AODVnormal.host[4].ipv4.ip packetDropUndefined:sum(packetBytes) 0
attr interpolationmode none
attr source packetDropReasonIsUndefined(packetDropped)
attr title "packet drop: undefined, sum(packetBytes)"
scalar AODVnormal.host[4].ipv4.arp arpResolutionFailed:count 0
attr title "ARP failed resolutions, count"
scalar AODVnormal.host[4].ipv4.arp arpResolutionCompleted:count 0
attr title "ARP completed resolutions, count"
scalar AODVnormal.host[4].ipv4.arp arpResolutionInitiated:count 0
attr title "ARP initiated resolutions, count"
scalar AODVnormal.host[4].ipv4.arp arpReplySent:count 0
attr source arpReplySent
attr title "ARP replies sent, count"
scalar AODVnormal.host[4].ipv4.arp arpReplySent:sum(packetBytes) 0
attr source arpReplySent
attr title "ARP replies sent, sum(packetBytes)"
scalar AODVnormal.host[4].ipv4.arp arpRequestSent:count 0
attr source arpRequestSent
attr title "ARP request sent, count"
scalar AODVnormal.host[4].ipv4.arp arpRequestSent:sum(packetBytes) 0
attr source arpRequestSent
attr title "ARP request sent, sum(packetBytes)"
scalar AODVnormal.host[4].udp packetReceived:count 3
attr interpolationmode none
attr source packetReceived
attr title "packets received, count"
scalar AODVnormal.host[4].udp packetReceived:sum(packetBytes) 96
attr interpolationmode none
attr source packetReceived
attr title "packets received, sum(packetBytes)"
scalar AODVnormal.host[4].udp packetSent:count 2
attr interpolationmode none
attr source packetSent
attr title "packets sent, count"
scalar AODVnormal.host[4].udp packetSent:sum(packetBytes) 64
attr interpolationmode none
attr source packetSent
attr title "packets sent, sum(packetBytes)"
scalar AODVnormal.host[4].udp passedUpPk:count 3
attr interpolationmode none
attr source packetSentToUpper
attr title "packets passed up, count"
scalar AODVnormal.host[4].udp droppedPkWrongPort:count 0
attr interpolationmode none
attr source packetDropReasonIsNoPortFound(packetDropped)
attr title "packets dropped (wrong port), count"
scalar AODVnormal.host[4].udp droppedPkBadChecksum:count 0
attr interpolationmode none
attr source packetDropReasonIsIncorrectlyReceived(packetDropped)
attr title "packets dropped (checksum error), count"
scalar AODVnormal.host[5].lo[0].lo rcvdPkFromHl:count 0
attr interpolationmode none
attr source packetReceivedFromUpper
attr title "packets received from higher layer, count"
scalar AODVnormal.host[5].lo[0].lo rcvdPkFromHl:sum(packetBytes) 0
attr interpolationmode none
attr source packetReceivedFromUpper
attr title "packets received from higher layer, sum(packetBytes)"
scalar AODVnormal.host[5].lo[0].lo passedUpPk:count 0
attr interpolationmode none
attr source packetSentToUpper
attr title "packets passed to higher layer, count"
scalar AODVnormal.host[5].lo[0].lo passedUpPk:sum(packetBytes) 0
attr interpolationmode none
attr source packetSentToUpper
attr title "packets passed to higher layer, sum(packetBytes)"
scalar AODVnormal.host[5].wlan[0].mac.queue packetPopped:count 1
attr interpolationmode none
attr title "packet popped, count"
scalar AODVnormal.host[5].wlan[0].mac.queue packetPopped:sum(packetBytes) 52
attr interpolationmode none
attr title "packet popped, sum(packetBytes)"
statistic AODVnormal.host[5].wlan[0].mac.queue queueingTime:histogram
field count 1
field mean 0
field stddev -nan
field min 0
field max 0
field sum 0
field sqrsum 0
attr interpolationmode none
attr source queueingTime(packetPopped)
attr title "queueing times, histogram"
attr unit s
bin	-inf	0
bin	-0.5	0
bin	-0.48	0
bin	-0.46	0
bin	-0.44	0
bin	-0.42	0
bin	-0.4	0
bin	-0.38	0
bin	-0.36	0
bin	-0.34	0
bin	-0.32	0
bin	-0.3	0
bin	-0.28	0
bin	-0.26	0
bin	-0.24	0
bin	-0.22	0
bin	-0.2	0
bin	-0.18	0
bin	-0.16	0
bin	-0.14	0
bin	-0.12	0
bin	-0.1	0
bin	-0.08	0
bin	-0.06	0
bin	-0.04	0
bin	-0.02	0
bin	0	1
bin	0.02	0
bin	0.04	0
bin	0.06	0
bin	0.08	0
bin	0.1	0
bin	0.12	0
bin	0.14	0
bin	0.16	0
bin	0.18	0
bin	0.2	0
bin	0.22	0
bin	0.24	0
bin	0.26	0
bin	0.28	0
bin	0.3	0
bin	0.32	0
bin	0.34	0
bin	0.36	0
bin	0.38	0
bin	0.4	0
bin	0.42	0
bin	0.44	0
bin	0.46	0
bin	0.48	0
bin	0.5	0
scalar AODVnormal.host[5].wlan[0].mac.queue queueLength:max 1
attr interpolationmode sample-hold
attr source "count(packetPushed) - count(packetPopped) - count(packetRemoved) - count(packetDropped)"
attr title "queue length, max"
scalar AODVnormal.host[5].wlan[0].mac.queue queueLength:timeavg 0
attr interpolationmode sample-hold
attr source "count(packetPushed) - count(packetPopped) - count(packetRemoved) - count(packetDropped)"
attr title "queue length, timeavg"
scalar AODVnormal.host[5].wlan[0].mac.queue packetPushed:count 1
attr interpolationmode none
attr title "packet pushed, count"
scalar AODVnormal.host[5].wlan[0].mac.queue packetPushed:sum(packetBytes) 52
attr interpolationmode none
attr title "packet pushed, sum(packetBytes)"
scalar AODVnormal.host[5].wlan[0].mac.queue packetDropQueueOverflow:count 0
attr interpolationmode none
attr source packetDropReasonIsQueueOverflow(packetDropped)
attr title "packet drops: queue overflow, count"
scalar AODVnormal.host[5].wlan[0].mac.queue packetDropQueueOverflow:sum(packetBytes) 0
attr interpolationmode none
attr source packetDropReasonIsQueueOverflow(packetDropped)
attr title "packet drops: queue overflow, sum(packetBytes)"
scalar AODVnormal.host[5].wlan[0].mac.queue packetRemoved:count 0
attr interpolationmode none
attr title "packets removed, count"
scalar AODVnormal.host[5].wlan[0].mac.queue packetRemoved:sum(packetBytes) 0
attr interpolationmode none
attr title "packets removed, sum(packetBytes)"
scalar AODVnormal.host[5].wlan[0].mac rcvdPkFromLl:count 3
attr interpolationmode none
attr source packetReceivedFromLower
attr title "packets received from lower layer, count"
scalar AODVnormal.host[5].wlan[0].mac rcvdPkFromLl:sum(packetBytes) 225
attr interpolationmode none
attr source packetReceivedFromLower
attr title "packets received from lower layer, sum(packetBytes)"
scalar AODVnormal.host[5].wlan[0].mac sentDownPk:count 1
attr interpolationmode none
attr source packetSentToLower
attr title "packets sent to lower layer, count"
scalar AODVnormal.host[5].wlan[0].mac sentDownPk:sum(packetBytes) 75
attr interpolationmode none
attr source packetSentToLower
attr title "packets sent to lower layer, sum(packetBytes)"
scalar AODVnormal.host[5].wlan[0].mac rcvdPkFromHl:count 1
attr interpolationmode none
attr source packetReceivedFromUpper
attr title "packets received from higher layer, count"
scalar AODVnormal.host[5].wlan[0].mac rcvdPkFromHl:sum(packetBytes) 52
attr interpolationmode none
attr source packetReceivedFromUpper
attr title "packets received from higher layer, sum(packetBytes)"
scalar AODVnormal.host[5].wlan[0].mac passedUpPk:count 3
attr interpolationmode none
attr source packetSentToUpper
attr title "packets passed to higher layer, count"
scalar AODVnormal.host[5].wlan[0].mac passedUpPk:sum(packetBytes) 156
attr interpolationmode none
attr source packetSentToUpper
attr title "packets passed to higher layer, sum(packetBytes)"
scalar AODVnormal.host[5].wlan[0].mac packetDropIncorrectlyReceived:count 0
attr interpolationmode none
attr source packetDropReasonIsIncorrectlyReceived(packetDropped)
attr title "packet drop: incorrectly received, count"
scalar AODVnormal.host[5].wlan[0].mac packetDropIncorrectlyReceived:sum(packetBytes) 0
attr interpolationmode none
attr source packetDropReasonIsIncorrectlyReceived(packetDropped)
attr title "packet drop: incorrectly received, sum(packetBytes)"
scalar AODVnormal.host[5].wlan[0].mac packetDropInterfaceDown:count 0
attr interpolationmode none
attr source packetDropReasonIsInterfaceDown(packetDropped)
attr title "packet drop: interface down, count"
scalar AODVnormal.host[5].wlan[0].mac packetDropInterfaceDown:sum(packetBytes) 0
attr interpolationmode none
attr source packetDropReasonIsInterfaceDown(packetDropped)
attr title "packet drop: interface down, sum(packetBytes)"
scalar AODVnormal.host[5].wlan[0].mac packetDropNotAddressedToUs:count 0
attr interpolationmode none
attr source packetDropReasonIsNotAddressedToUs(packetDropped)
attr title "packet drop: not addressed to us, count"
scalar AODVnormal.host[5].wlan[0].mac packetDropNotAddressedToUs:sum(packetBytes) 0
attr interpolationmode none
attr source packetDropReasonIsNotAddressedToUs(packetDropped)
attr title "packet drop: not addressed to us, sum(packetBytes)"
scalar AODVnormal.host[5].wlan[0].mac linkBroken:count 0
attr interpolationmode none
attr source linkBroken
attr title "link break, count"
scalar AODVnormal.host[5].wlan[0].radio radioMode:count 3
attr interpolationmode sample-hold
attr source radioModeChanged
attr title "Radio mode, count"
scalar AODVnormal.host[5].wlan[0].radio receptionState:count 9
attr interpolationmode sample-hold
attr source receptionStateChanged
attr title "Radio reception state, count"
scalar AODVnormal.host[5].wlan[0].radio transmissionState:count 3
attr interpolationmode sample-hold
attr source transmissionStateChanged
attr title "Radio transmission state, count"
statistic AODVnormal.host[5].wlan[0].radio minSnir:histogram
field count 0
field mean -nan
field stddev nan
field min nan
field max nan
field sum 0
field sqrsum 0
attr source minimumSnir(packetSentToUpper)
attr title "Min SNIR, histogram"
bin	-inf	0
bin	0	0
bin	1	0
statistic AODVnormal.host[5].wlan[0].radio packetErrorRate:histogram
field count 3
field mean 0.66666666666667
field stddev 0.57735026918963
field min 0
field max 1
field sum 2
field sqrsum 2
attr source packetErrorRate(packetSentToUpper)
attr title "Packet error rate, histogram"
bin	-inf	0
bin	0	1
bin	1	2
bin	2	0
statistic AODVnormal.host[5].wlan[0].radio bitErrorRate:histogram
field count 3
field mean 0.66666666666667
field stddev 0.57735026918963
field min 0
field max 1
field sum 2
field sqrsum 2
attr source bitErrorRate(packetSentToUpper)
attr title "Bit error rate, histogram"
bin	-inf	0
bin	0	1
bin	1	2
bin	2	0
statistic AODVnormal.host[5].wlan[0].radio symbolErrorRate:histogram
field count 3
field mean 0.66666666666667
field stddev 0.57735026918963
field min 0
field max 1
field sum 2
field sqrsum 2
attr source symbolErrorRate(packetSentToUpper)
attr title "Symbol error rate, histogram"
bin	-inf	0
bin	0	1
bin	1	2
bin	2	0
scalar AODVnormal.host[5].ipv4.ip packetDropAddressResolutionFailed:count 0
attr interpolationmode none
attr source packetDropReasonIsAddressResolutionFailed(packetDropped)
attr title "packet drop: address resolution failed, count"
scalar AODVnormal.host[5].ipv4.ip packetDropAddressResolutionFailed:sum(packetBytes) 0
attr interpolationmode none
attr source packetDropReasonIsAddressResolutionFailed(packetDropped)
attr title "packet drop: address resolution failed, sum(packetBytes)"
scalar AODVnormal.host[5].ipv4.ip packetDropHopLimitReached:count 0
attr interpolationmode none
attr source packetDropReasonIsHopLimitReached(packetDropped)
attr title "packet drop: hop limit reached, count"
scalar AODVnormal.host[5].ipv4.ip packetDropHopLimitReached:sum(packetBytes) 0
attr interpolationmode none
attr source packetDropReasonIsHopLimitReached(packetDropped)
attr title "packet drop: hop limit reached, sum(packetBytes)"
scalar AODVnormal.host[5].ipv4.ip packetDropForwardingDisabled:count 0
attr interpolationmode none
attr source packetDropReasonIsForwardingDisabled(packetDropped)
attr title "packet drop: forwarding disabled, count"
scalar AODVnormal.host[5].ipv4.ip packetDropForwardingDisabled:sum(packetBytes) 0
attr interpolationmode none
attr source packetDropReasonIsForwardingDisabled(packetDropped)
attr title "packet drop: forwarding disabled, sum(packetBytes)"
scalar AODVnormal.host[5].ipv4.ip packetDropNoInterfaceFound:count 0
attr interpolationmode none
attr source packetDropReasonIsNoInterfaceFound(packetDropped)
attr title "packet drop: no interface found, count"
scalar AODVnormal.host[5].ipv4.ip packetDropNoInterfaceFound:sum(packetBytes) 0
attr interpolationmode none
attr source packetDropReasonIsNoInterfaceFound(packetDropped)
attr title "packet drop: no interface found, sum(packetBytes)"
scalar AODVnormal.host[5].ipv4.ip packetDropNoRouteFound:count 0
attr interpolationmode none
attr source packetDropReasonIsNoRouteFound(packetDropped)
attr title "packet drop: no route found, count"
scalar AODVnormal.host[5].ipv4.ip packetDropNoRouteFound:sum(packetBytes) 0
attr interpolationmode none
attr source packetDropReasonIsNoRouteFound(packetDropped)
attr title "packet drop: no route found, sum(packetBytes)"
scalar AODVnormal.host[5].ipv4.ip packetDropUndefined:count 0
attr interpolationmode none
attr source packetDropReasonIsUndefined(packetDropped)
attr title "packet drop: undefined, count"
scalar AODVnormal.host[5].ipv4.ip packetDropUndefined:sum(packetBytes) 0
attr interpolationmode none
attr source packetDropReasonIsUndefined(packetDropped)
attr title "packet drop: undefined, sum(packetBytes)"
scalar AODVnormal.host[5].ipv4.arp arpResolutionFailed:count 0
attr title "ARP failed resolutions, count"
scalar AODVnormal.host[5].ipv4.arp arpResolutionCompleted:count 0
attr title "ARP completed resolutions, count"
scalar AODVnormal.host[5].ipv4.arp arpResolutionInitiated:count 0
attr title "ARP initiated resolutions, count"
scalar AODVnormal.host[5].ipv4.arp arpReplySent:count 0
attr source arpReplySent
attr title "ARP replies sent, count"
scalar AODVnormal.host[5].ipv4.arp arpReplySent:sum(packetBytes) 0
attr source arpReplySent
attr title "ARP replies sent, sum(packetBytes)"
scalar AODVnormal.host[5].ipv4.arp arpRequestSent:count 0
attr source arpRequestSent
attr title "ARP request sent, count"
scalar AODVnormal.host[5].ipv4.arp arpRequestSent:sum(packetBytes) 0
attr source arpRequestSent
attr title "ARP request sent, sum(packetBytes)"
scalar AODVnormal.host[5].udp packetReceived:count 3
attr interpolationmode none
attr source packetReceived
attr title "packets received, count"
scalar AODVnormal.host[5].udp packetReceived:sum(packetBytes) 96
attr interpolationmode none
attr source packetReceived
attr title "packets received, sum(packetBytes)"
scalar AODVnormal.host[5].udp packetSent:count 1
attr interpolationmode none
attr source packetSent
attr title "packets sent, count"
scalar AODVnormal.host[5].udp packetSent:sum(packetBytes) 32
attr interpolationmode none
attr source packetSent
[...]
bin	-0.26	0
bin	-0.24	0
bin	-0.22	0
bin	-0.2	0
bin	-0.18	0
bin	-0.16	0
bin	-0.14	0
bin	-0.12	0
bin	-0.1	0
bin	-0.08	0
bin	-0.06	0
bin	-0.04	0
bin	-0.02	0
bin	0	215
bin	0.02	0
bin	0.04	0
bin	0.06	0
bin	0.08	0
bin	0.1	0
bin	0.12	0
bin	0.14	0
bin	0.16	0
bin	0.18	0
bin	0.2	0
bin	0.22	0
bin	0.24	0
bin	0.26	0
bin	0.28	0
bin	0.3	0
bin	0.32	0
bin	0.34	0
bin	0.36	0
bin	0.38	0
bin	0.4	0
bin	0.42	0
bin	0.44	0
bin	0.46	0
bin	0.48	0
bin	0.5	0
scalar AODVnormal.sender.ipv4.ip packetDropAddressResolutionFailed:count 0
attr interpolationmode none
attr source packetDropReasonIsAddressResolutionFailed(packetDropped)
attr title "packet drop: address resolution failed, count"
scalar AODVnormal.sender.ipv4.ip packetDropAddressResolutionFailed:sum(packetBytes) 0
attr interpolationmode none
attr source packetDropReasonIsAddressResolutionFailed(packetDropped)
attr title "packet drop: address resolution failed, sum(packetBytes)"
scalar AODVnormal.sender.ipv4.ip packetDropHopLimitReached:count 0
attr interpolationmode none
attr source packetDropReasonIsHopLimitReached(packetDropped)
attr title "packet drop: hop limit reached, count"
scalar AODVnormal.sender.ipv4.ip packetDropHopLimitReached:sum(packetBytes) 0
attr interpolationmode none
attr source packetDropReasonIsHopLimitReached(packetDropped)
attr title "packet drop: hop limit reached, sum(packetBytes)"
scalar AODVnormal.sender.ipv4.ip packetDropForwardingDisabled:count 0
attr interpolationmode none
attr source packetDropReasonIsForwardingDisabled(packetDropped)
attr title "packet drop: forwarding disabled, count"
scalar AODVnormal.sender.ipv4.ip packetDropForwardingDisabled:sum(packetBytes) 0
attr interpolationmode none
attr source packetDropReasonIsForwardingDisabled(packetDropped)
attr title "packet drop: forwarding disabled, sum(packetBytes)"
scalar AODVnormal.sender.ipv4.ip packetDropNoInterfaceFound:count 0
attr interpolationmode none
attr source packetDropReasonIsNoInterfaceFound(packetDropped)
attr title "packet drop: no interface found, count"
scalar AODVnormal.sender.ipv4.ip packetDropNoInterfaceFound:sum(packetBytes) 0
attr interpolationmode none
attr source packetDropReasonIsNoInterfaceFound(packetDropped)
attr title "packet drop: no interface found, sum(packetBytes)"
scalar AODVnormal.sender.ipv4.ip packetDropNoRouteFound:count 0
attr interpolationmode none
attr source packetDropReasonIsNoRouteFound(packetDropped)
attr title "packet drop: no route found, count"
scalar AODVnormal.sender.ipv4.ip packetDropNoRouteFound:sum(packetBytes) 0
attr interpolationmode none
attr source packetDropReasonIsNoRouteFound(packetDropped)
attr title "packet drop: no route found, sum(packetBytes)"
scalar AODVnormal.sender.ipv4.ip packetDropUndefined:count 0
attr interpolationmode none
attr source packetDropReasonIsUndefined(packetDropped)
attr title "packet drop: undefined, count"
scalar AODVnormal.sender.ipv4.ip packetDropUndefined:sum(packetBytes) 0
attr interpolationmode none
attr source packetDropReasonIsUndefined(packetDropped)
attr title "packet drop: undefined, sum(packetBytes)"
scalar AODVnormal.sender.ipv4.arp arpResolutionFailed:count 0
attr title "ARP failed resolutions, count"
scalar AODVnormal.sender.ipv4.arp arpResolutionCompleted:count 3
attr title "ARP completed resolutions, count"
scalar AODVnormal.sender.ipv4.arp arpResolutionInitiated:count 1
attr title "ARP initiated resolutions, count"
scalar AODVnormal.sender.ipv4.arp arpReplySent:count 1
attr source arpReplySent
attr title "ARP replies sent, count"
scalar AODVnormal.sender.ipv4.arp arpReplySent:sum(packetBytes) 28
attr source arpReplySent
attr title "ARP replies sent, sum(packetBytes)"
scalar AODVnormal.sender.ipv4.arp arpRequestSent:count 1
attr source arpRequestSent
attr title "ARP request sent, count"
scalar AODVnormal.sender.ipv4.arp arpRequestSent:sum(packetBytes) 28
attr source arpRequestSent
attr title "ARP request sent, sum(packetBytes)"
scalar AODVnormal.sender.udp packetReceived:count 11
attr interpolationmode none
attr source packetReceived
attr title "packets received, count"
scalar AODVnormal.sender.udp packetReceived:sum(packetBytes) 340
attr interpolationmode none
attr source packetReceived
attr title "packets received, sum(packetBytes)"
scalar AODVnormal.sender.udp packetSent:count 205
attr interpolationmode none
attr source packetSent
attr title "packets sent, count"
scalar AODVnormal.sender.udp packetSent:sum(packetBytes) 202736
attr interpolationmode none
attr source packetSent
attr title "packets sent, sum(packetBytes)"
scalar AODVnormal.sender.udp passedUpPk:count 11
attr interpolationmode none
attr source packetSentToUpper
attr title "packets passed up, count"
scalar AODVnormal.sender.udp droppedPkWrongPort:count 0
attr interpolationmode none
attr source packetDropReasonIsNoPortFound(packetDropped)
attr title "packets dropped (wrong port), count"
scalar AODVnormal.sender.udp droppedPkBadChecksum:count 0
attr interpolationmode none
attr source packetDropReasonIsIncorrectlyReceived(packetDropped)
attr title "packets dropped (checksum error), count"
scalar AODVnormal.sender.app[0] "packets sent" 201
scalar AODVnormal.sender.app[0] "packets received" 0
scalar AODVnormal.sender.app[0] packetReceived:count 0
attr interpolationmode none
attr source packetReceived
attr title "packets received, count"
scalar AODVnormal.sender.app[0] packetReceived:sum(packetBytes) 0
attr interpolationmode none
attr source packetReceived
attr title "packets received, sum(packetBytes)"
statistic AODVnormal.sender.app[0] rcvdPkLifetime:stats
field count 0
field mean -nan
field stddev nan
field min nan
field max nan
field sum 0
field sqrsum 0
attr interpolationmode none
attr source dataAge(packetReceived)
attr title "received packet lifetime, stats"
attr unit s
scalar AODVnormal.sender.app[0] packetSent:count 201
attr interpolationmode none
attr source packetSent
attr title "packets sent, count"
scalar AODVnormal.sender.app[0] packetSent:sum(packetBytes) 201000
attr interpolationmode none
attr source packetSent
attr title "packets sent, sum(packetBytes)"
scalar AODVnormal.receiver.lo[0].lo rcvdPkFromHl:count 0
attr interpolationmode none
attr source packetReceivedFromUpper
attr title "packets received from higher layer, count"
scalar AODVnormal.receiver.lo[0].lo rcvdPkFromHl:sum(packetBytes) 0
attr interpolationmode none
attr source packetReceivedFromUpper
attr title "packets received from higher layer, sum(packetBytes)"
scalar AODVnormal.receiver.lo[0].lo passedUpPk:count 0
attr interpolationmode none
attr source packetSentToUpper
attr title "packets passed to higher layer, count"
scalar AODVnormal.receiver.lo[0].lo passedUpPk:sum(packetBytes) 0
attr interpolationmode none
attr source packetSentToUpper
attr title "packets passed to higher layer, sum(packetBytes)"
scalar AODVnormal.receiver.wlan[0].mac.queue packetPopped:count 6
attr interpolationmode none
attr title "packet popped, count"
scalar AODVnormal.receiver.wlan[0].mac.queue packetPopped:sum(packetBytes) 208
attr interpolationmode none
attr title "packet popped, sum(packetBytes)"
statistic AODVnormal.receiver.wlan[0].mac.queue queueingTime:histogram
field count 6
field mean 0
field stddev 0
field min 0
field max 0
field sum 0
field sqrsum 0
attr interpolationmode none
attr source queueingTime(packetPopped)
attr title "queueing times, histogram"
attr unit s
bin	-inf	0
bin	-0.5	0
bin	-0.48	0
bin	-0.46	0
bin	-0.44	0
bin	-0.42	0
bin	-0.4	0
bin	-0.38	0
bin	-0.36	0
bin	-0.34	0
bin	-0.32	0
bin	-0.3	0
bin	-0.28	0
bin	-0.26	0
bin	-0.24	0
bin	-0.22	0
bin	-0.2	0
bin	-0.18	0
bin	-0.16	0
bin	-0.14	0
bin	-0.12	0
bin	-0.1	0
bin	-0.08	0
bin	-0.06	0
bin	-0.04	0
bin	-0.02	0
bin	0	6
bin	0.02	0
bin	0.04	0
bin	0.06	0
bin	0.08	0
bin	0.1	0
bin	0.12	0
bin	0.14	0
bin	0.16	0
bin	0.18	0
bin	0.2	0
bin	0.22	0
bin	0.24	0
bin	0.26	0
bin	0.28	0
bin	0.3	0
bin	0.32	0
bin	0.34	0
bin	0.36	0
bin	0.38	0
bin	0.4	0
bin	0.42	0
bin	0.44	0
bin	0.46	0
bin	0.48	0
bin	0.5	0
scalar AODVnormal.receiver.wlan[0].mac.queue queueLength:max 1
attr interpolationmode sample-hold
attr source "count(packetPushed) - count(packetPopped) - count(packetRemoved) - count(packetDropped)"
attr title "queue length, max"
scalar AODVnormal.receiver.wlan[0].mac.queue queueLength:timeavg 0
attr interpolationmode sample-hold
attr source "count(packetPushed) - count(packetPopped) - count(packetRemoved) - count(packetDropped)"
attr title "queue length, timeavg"
scalar AODVnormal.receiver.wlan[0].mac.queue packetPushed:count 6
attr interpolationmode none
attr title "packet pushed, count"
scalar AODVnormal.receiver.wlan[0].mac.queue packetPushed:sum(packetBytes) 208
attr interpolationmode none
attr title "packet pushed, sum(packetBytes)"
scalar AODVnormal.receiver.wlan[0].mac.queue packetDropQueueOverflow:count 0
attr interpolationmode none
attr source packetDropReasonIsQueueOverflow(packetDropped)
attr title "packet drops: queue overflow, count"
scalar AODVnormal.receiver.wlan[0].mac.queue packetDropQueueOverflow:sum(packetBytes) 0
attr interpolationmode none
attr source packetDropReasonIsQueueOverflow(packetDropped)
attr title "packet drops: queue overflow, sum(packetBytes)"
scalar AODVnormal.receiver.wlan[0].mac.queue packetRemoved:count 0
attr interpolationmode none
attr title "packets removed, count"
scalar AODVnormal.receiver.wlan[0].mac.queue packetRemoved:sum(packetBytes) 0
attr interpolationmode none
attr title "packets removed, sum(packetBytes)"
scalar AODVnormal.receiver.wlan[0].mac rcvdPkFromLl:count 223
attr interpolationmode none
attr source packetReceivedFromLower
attr title "packets received from lower layer, count"
scalar AODVnormal.receiver.wlan[0].mac rcvdPkFromLl:sum(packetBytes) 211673
attr interpolationmode none
attr source packetReceivedFromLower
attr title "packets received from lower layer, sum(packetBytes)"
scalar AODVnormal.receiver.wlan[0].mac sentDownPk:count 6
attr interpolationmode none
attr source packetSentToLower
attr title "packets sent to lower layer, count"
scalar AODVnormal.receiver.wlan[0].mac sentDownPk:sum(packetBytes) 346
attr interpolationmode none
attr source packetSentToLower
attr title "packets sent to lower layer, sum(packetBytes)"
scalar AODVnormal.receiver.wlan[0].mac rcvdPkFromHl:count 6
attr interpolationmode none
attr source packetReceivedFromUpper
attr title "packets received from higher layer, count"
scalar AODVnormal.receiver.wlan[0].mac rcvdPkFromHl:sum(packetBytes) 208
attr interpolationmode none
attr source packetReceivedFromUpper
attr title "packets received from higher layer, sum(packetBytes)"
scalar AODVnormal.receiver.wlan[0].mac passedUpPk:count 219
attr interpolationmode none
attr source packetSentToUpper
attr title "packets passed to higher layer, count"
scalar AODVnormal.receiver.wlan[0].mac passedUpPk:sum(packetBytes) 206372
attr interpolationmode none
attr source packetSentToUpper
attr title "packets passed to higher layer, sum(packetBytes)"
scalar AODVnormal.receiver.wlan[0].mac packetDropIncorrectlyReceived:count 0
attr interpolationmode none
attr source packetDropReasonIsIncorrectlyReceived(packetDropped)
attr title "packet drop: incorrectly received, count"
scalar AODVnormal.receiver.wlan[0].mac packetDropIncorrectlyReceived:sum(packetBytes) 0
attr interpolationmode none
attr source packetDropReasonIsIncorrectlyReceived(packetDropped)
attr title "packet drop: incorrectly received, sum(packetBytes)"
scalar AODVnormal.receiver.wlan[0].mac packetDropInterfaceDown:count 0
attr interpolationmode none
attr source packetDropReasonIsInterfaceDown(packetDropped)
attr title "packet drop: interface down, count"
scalar AODVnormal.receiver.wlan[0].mac packetDropInterfaceDown:sum(packetBytes) 0
attr interpolationmode none
attr source packetDropReasonIsInterfaceDown(packetDropped)
attr title "packet drop: interface down, sum(packetBytes)"
scalar AODVnormal.receiver.wlan[0].mac packetDropNotAddressedToUs:count 4
attr interpolationmode none
attr source packetDropReasonIsNotAddressedToUs(packetDropped)
attr title "packet drop: not addressed to us, count"
scalar AODVnormal.receiver.wlan[0].mac packetDropNotAddressedToUs:sum(packetBytes) 264
attr interpolationmode none
attr source packetDropReasonIsNotAddressedToUs(packetDropped)
attr title "packet drop: not addressed to us, sum(packetBytes)"
scalar AODVnormal.receiver.wlan[0].mac linkBroken:count 0
attr interpolationmode none
attr source linkBroken
attr title "link break, count"
scalar AODVnormal.receiver.wlan[0].radio radioMode:count 3
attr interpolationmode sample-hold
attr source radioModeChanged
attr title "Radio mode, count"
scalar AODVnormal.receiver.wlan[0].radio receptionState:count 449
attr interpolationmode sample-hold
attr source receptionStateChanged
attr title "Radio reception state, count"
scalar AODVnormal.receiver.wlan[0].radio transmissionState:count 13
attr interpolationmode sample-hold
attr source transmissionStateChanged
attr title "Radio transmission state, count"
statistic AODVnormal.receiver.wlan[0].radio minSnir:histogram
field count 0
field mean -nan
field stddev nan
field min nan
field max nan
field sum 0
field sqrsum 0
attr source minimumSnir(packetSentToUpper)
attr title "Min SNIR, histogram"
bin	-inf	0
bin	0	0
bin	1	0
statistic AODVnormal.receiver.wlan[0].radio packetErrorRate:histogram
field count 223
field mean 0.022421524663677
field stddev 0.14838306247108
field min 0
field max 1
field sum 5
field sqrsum 5
attr source packetErrorRate(packetSentToUpper)
attr title "Packet error rate, histogram"
bin	-inf	0
bin	0	218
bin	1	5
bin	2	0
statistic AODVnormal.receiver.wlan[0].radio bitErrorRate:histogram
field count 223
field mean 0.022421524663677
field stddev 0.14838306247108
field min 0
field max 1
field sum 5
field sqrsum 5
attr source bitErrorRate(packetSentToUpper)
attr title "Bit error rate, histogram"
bin	-inf	0
bin	0	218
bin	1	5
bin	2	0
statistic AODVnormal.receiver.wlan[0].radio symbolErrorRate:histogram
field count 223
field mean 0.022421524663677
field stddev 0.14838306247108
field min 0
field max 1
field sum 5
field sqrsum 5
attr source symbolErrorRate(packetSentToUpper)
attr title "Symbol error rate, histogram"
bin	-inf	0
bin	0	218
bin	1	5
bin	2	0
scalar AODVnormal.receiver.ipv4.ip packetDropAddressResolutionFailed:count 0
attr interpolationmode none
attr source packetDropReasonIsAddressResolutionFailed(packetDropped)
attr title "packet drop: address resolution failed, count"
scalar AODVnormal.receiver.ipv4.ip packetDropAddressResolutionFailed:sum(packetBytes) 0
attr interpolationmode none
attr source packetDropReasonIsAddressResolutionFailed(packetDropped)
attr title "packet drop: address resolution failed, sum(packetBytes)"
scalar AODVnormal.receiver.ipv4.ip packetDropHopLimitReached:count 0
attr interpolationmode none
attr source packetDropReasonIsHopLimitReached(packetDropped)
attr title "packet drop: hop limit reached, count"
scalar AODVnormal.receiver.ipv4.ip packetDropHopLimitReached:sum(packetBytes) 0
attr interpolationmode none
attr source packetDropReasonIsHopLimitReached(packetDropped)
attr title "packet drop: hop limit reached, sum(packetBytes)"
scalar AODVnormal.receiver.ipv4.ip packetDropForwardingDisabled:count 0
attr interpolationmode none
attr source packetDropReasonIsForwardingDisabled(packetDropped)
attr title "packet drop: forwarding disabled, count"
scalar AODVnormal.receiver.ipv4.ip packetDropForwardingDisabled:sum(packetBytes) 0
attr interpolationmode none
attr source packetDropReasonIsForwardingDisabled(packetDropped)
attr title "packet drop: forwarding disabled, sum(packetBytes)"
scalar AODVnormal.receiver.ipv4.ip packetDropNoInterfaceFound:count 0
attr interpolationmode none
attr source packetDropReasonIsNoInterfaceFound(packetDropped)
attr title "packet drop: no interface found, count"
scalar AODVnormal.receiver.ipv4.ip packetDropNoInterfaceFound:sum(packetBytes) 0
attr interpolationmode none
attr source packetDropReasonIsNoInterfaceFound(packetDropped)
attr title "packet drop: no interface found, sum(packetBytes)"
scalar AODVnormal.receiver.ipv4.ip packetDropNoRouteFound:count 0
attr interpolationmode none
attr source packetDropReasonIsNoRouteFound(packetDropped)
attr title "packet drop: no route found, count"
scalar AODVnormal.receiver.ipv4.ip packetDropNoRouteFound:sum(packetBytes) 0
attr interpolationmode none
attr source packetDropReasonIsNoRouteFound(packetDropped)
attr title "packet drop: no route found, sum(packetBytes)"
scalar AODVnormal.receiver.ipv4.ip packetDropUndefined:count 0
attr interpolationmode none
attr source packetDropReasonIsUndefined(packetDropped)
attr title "packet drop: undefined, count"
scalar AODVnormal.receiver.ipv4.ip packetDropUndefined:sum(packetBytes) 0
attr interpolationmode none
attr source packetDropReasonIsUndefined(packetDropped)
attr title "packet drop: undefined, sum(packetBytes)"
scalar AODVnormal.receiver.ipv4.arp arpResolutionFailed:count 0
attr title "ARP failed resolutions, count"
scalar AODVnormal.receiver.ipv4.arp arpResolutionCompleted:count 9
attr title "ARP completed resolutions, count"
scalar AODVnormal.receiver.ipv4.arp arpResolutionInitiated:count 2
attr title "ARP initiated resolutions, count"
scalar AODVnormal.receiver.ipv4.arp arpReplySent:count 1
attr source arpReplySent
attr title "ARP replies sent, count"
scalar AODVnormal.receiver.ipv4.arp arpReplySent:sum(packetBytes) 28
attr source arpReplySent
attr title "ARP replies sent, sum(packetBytes)"
scalar AODVnormal.receiver.ipv4.arp arpRequestSent:count 3
attr source arpRequestSent
attr title "ARP request sent, count"
scalar AODVnormal.receiver.ipv4.arp arpRequestSent:sum(packetBytes) 84
attr source arpRequestSent
attr title "ARP request sent, sum(packetBytes)"
scalar AODVnormal.receiver.udp packetReceived:count 210
attr interpolationmode none
attr source packetReceived
attr title "packets received, count"
scalar AODVnormal.receiver.udp packetReceived:sum(packetBytes) 201920
attr interpolationmode none
attr source packetReceived
attr title "packets received, sum(packetBytes)"
scalar AODVnormal.receiver.udp packetSent:count 2
attr interpolationmode none
attr source packetSent
attr title "packets sent, count"
scalar AODVnormal.receiver.udp packetSent:sum(packetBytes) 56
attr interpolationmode none
attr source packetSent
attr title "packets sent, sum(packetBytes)"
scalar AODVnormal.receiver.udp passedUpPk:count 210
attr interpolationmode none
attr source packetSentToUpper
attr title "packets passed up, count"
scalar AODVnormal.receiver.udp droppedPkWrongPort:count 0
attr interpolationmode none
attr source packetDropReasonIsNoPortFound(packetDropped)
attr title "packets dropped (wrong port), count"
scalar AODVnormal.receiver.udp droppedPkBadChecksum:count 0
attr interpolationmode none
attr source packetDropReasonIsIncorrectlyReceived(packetDropped)
attr title "packets dropped (checksum error), count"
scalar AODVnormal.receiver.app[0] packetReceived:count 200
attr interpolationmode none
attr source packetReceived
attr title "packets received, count"
scalar AODVnormal.receiver.app[0] packetReceived:sum(packetBytes) 200000
attr interpolationmode none
attr source packetReceived
attr title "packets received, sum(packetBytes)"
statistic AODVnormal.receiver.app[0] endToEndDelay:histogram
field count 200
field mean 0.034630092818105
field stddev 0.14224937758638
field min 0.021263215437
field max 1.854561342163
field sum 6.926018563621
field sqrsum 4.2665908650372
attr interpolationmode none
attr source dataAge(packetReceived)
attr title "end-to-end delay, histogram"
attr unit s
bin	-inf	0
bin	0	198
bin	0.05	0
bin	0.1	0
bin	0.15	0
bin	0.2	0
bin	0.25	0
bin	0.3	0
bin	0.35	0
bin	0.4	0
bin	0.45	0
bin	0.5	0
bin	0.55	0
bin	0.6	0
bin	0.65	0
bin	0.7	0
bin	0.75	0
bin	0.8	0
bin	0.85	1
bin	0.9	0
bin	0.95	0
bin	1	0
bin	1.05	0
bin	1.1	0
bin	1.15	0
bin	1.2	0
bin	1.25	0
bin	1.3	0
bin	1.35	0
bin	1.4	0
bin	1.45	0
bin	1.5	0
bin	1.55	0
bin	1.6	0
bin	1.65	0
bin	1.7	0
bin	1.75	0
bin	1.8	0
bin	1.85	1
bin	1.9	0
bin	1.95	0
bin	2	0
bin	2.05	0
bin	2.1	0
bin	2.15	0
bin	2.2	0
bin	2.25	0
bin	2.3	0
bin	2.35	0

