file 1842386 1598432384                                         
version 2
run IPv4ModerateFastMobility-0-20200826-15:59:33-14466
attr configname IPv4ModerateFastMobility
attr datetime 20200826-15:59:33
attr experiment IPv4ModerateFastMobility
attr inifile AODVnormal.ini
attr iterationvars ""
attr iterationvarsf ""
attr measurement ""
attr network AODVnormal
attr processid 14466
attr repetition 0
attr replication #0
attr resultdir results
attr runnumber 0
attr seedset 0
param **.aodv.activeRouteTimeout 3s
param **.host[*].mobility.speed "normal(8mps, 0.01mps)"
param **.aodv.activeRouteTimeout 3s
param **.*.mobility.typename "\"MassMobility\""
param **.*.mobility.changeInterval "normal(5s, 0.1s)"
param **.*.mobility.angleDelta "normal(0deg, 30deg)"
param **.*.mobility.speed "normal(2mps, 0.01mps)"
param *.host[*].wlan[*].radio.transmitter.communicationRange 250m
param *.sender.wlan[*].radio.transmitter.communicationRange 250m
param *.receiver.wlan[*].radio.transmitter.communicationRange 250m
param **.wlan[*].typename "\"AckingWirelessInterface\""
param **.wlan[*].bitrate 2Mbps
param **.wlan[*].mac.headerLength 23B
param **.wlan[*].radio.typename "\"UnitDiskRadio\""
param **.wlan[*].radio.transmitter.headerLength 96b
param **.wlan[*].radio.transmitter.communicationRange 250m
param **.wlan[*].radio.transmitter.interferenceRange 0m
param **.wlan[*].radio.transmitter.detectionRange 0m
param **.wlan[*].radio.receiver.ignoreInterference true
param *.numHosts 38
param **.host[*].mobility.typename "\"StationaryMobility\""
param **.mobility.constraintAreaMinZ 0m
param **.mobility.constraintAreaMaxZ 0m
param **.mobility.constraintAreaMinX 5m
param **.mobility.constraintAreaMinY 5m
param **.mobility.constraintAreaMaxX 995m
param **.mobility.constraintAreaMaxY 995m
param *.visualizer.dataLinkVisualizer.displayLinks true
param *.visualizer.networkRouteVisualizer.displayRoutes true
param *.visualizer.networkRouteVisualizer.lineShift 0
param *.visualizer.networkRouteVisualizer.packetFilter "\"UDPData*\""
param *.sender.numApps 1
param *.sender.app[0].typename "\"UdpBasicApp\""
param *.sender.app[0].destAddresses "\"receiver\""
param *.sender.app[0].destPort 1000
param *.sender.app[0].sendInterval 1s
param *.sender.app[0].startTime 0s
param *.sender.app[0].messageLength 1000Byte
param *.sender.app[0].packetName "\"UDPdata\""
param *.receiver.numApps 1
param *.receiver.app[0].typename "\"UdpSink\""
param *.receiver.app[0].localPort 1000
param **.hasStatus true

vector 0 AODVnormal.host[0].wlan[0].radio radioMode:vector ETV
attr interpolationmode sample-hold
attr source radioModeChanged
attr title "Radio mode, vector"
vector 1 AODVnormal.host[1].wlan[0].radio radioMode:vector ETV
attr interpolationmode sample-hold
attr source radioModeChanged
attr title "Radio mode, vector"
vector 2 AODVnormal.host[2].wlan[0].radio radioMode:vector ETV
attr interpolationmode sample-hold
attr source radioModeChanged
attr title "Radio mode, vector"
vector 3 AODVnormal.host[3].wlan[0].radio radioMode:vector ETV
attr interpolationmode sample-hold
attr source radioModeChanged
attr title "Radio mode, vector"
vector 4 AODVnormal.host[4].wlan[0].radio radioMode:vector ETV
attr interpolationmode sample-hold
attr source radioModeChanged
attr title "Radio mode, vector"
vector 5 AODVnormal.host[5].wlan[0].radio radioMode:vector ETV
attr interpolationmode sample-hold
attr source radioModeChanged
attr title "Radio mode, vector"
vector 6 AODVnormal.host[6].wlan[0].radio radioMode:vector ETV
attr interpolationmode sample-hold
attr source radioModeChanged
attr title "Radio mode, vector"
vector 7 AODVnormal.host[7].wlan[0].radio radioMode:vector ETV
attr interpolationmode sample-hold
attr source radioModeChanged
attr title "Radio mode, vector"
vector 8 AODVnormal.host[8].wlan[0].radio radioMode:vector ETV
attr interpolationmode sample-hold
attr source radioModeChanged
attr title "Radio mode, vector"
vector 9 AODVnormal.host[9].wlan[0].radio radioMode:vector ETV
attr interpolationmode sample-hold
attr source radioModeChanged
attr title "Radio mode, vector"
vector 10 AODVnormal.host[10].wlan[0].radio radioMode:vector ETV
attr interpolationmode sample-hold
attr source radioModeChanged
attr title "Radio mode, vector"
vector 11 AODVnormal.host[11].wlan[0].radio radioMode:vector ETV
attr interpolationmode sample-hold
attr source radioModeChanged
attr title "Radio mode, vector"
vector 12 AODVnormal.host[12].wlan[0].radio radioMode:vector ETV
attr interpolationmode sample-hold
attr source radioModeChanged
attr title "Radio mode, vector"
vector 13 AODVnormal.host[13].wlan[0].radio radioMode:vector ETV
attr interpolationmode sample-hold
attr source radioModeChanged
attr title "Radio mode, vector"
vector 14 AODVnormal.host[14].wlan[0].radio radioMode:vector ETV
attr interpolationmode sample-hold
attr source radioModeChanged
attr title "Radio mode, vector"
vector 15 AODVnormal.host[15].wlan[0].radio radioMode:vector ETV
attr interpolationmode sample-hold
attr source radioModeChanged
attr title "Radio mode, vector"
vector 16 AODVnormal.host[16].wlan[0].radio radioMode:vector ETV
attr interpolationmode sample-hold
attr source radioModeChanged
attr title "Radio mode, vector"
vector 17 AODVnormal.host[17].wlan[0].radio radioMode:vector ETV
attr interpolationmode sample-hold
attr source radioModeChanged
attr title "Radio mode, vector"
vector 18 AODVnormal.host[18].wlan[0].radio radioMode:vector ETV
attr interpolationmode sample-hold
attr source radioModeChanged
attr title "Radio mode, vector"
vector 19 AODVnormal.host[19].wlan[0].radio radioMode:vector ETV
attr interpolationmode sample-hold
attr source radioModeChanged
attr title "Radio mode, vector"
vector 20 AODVnormal.host[20].wlan[0].radio radioMode:vector ETV
attr interpolationmode sample-hold
attr source radioModeChanged
attr title "Radio mode, vector"
vector 21 AODVnormal.host[21].wlan[0].radio radioMode:vector ETV
attr interpolationmode sample-hold
attr source radioModeChanged
attr title "Radio mode, vector"
vector 22 AODVnormal.host[22].wlan[0].radio radioMode:vector ETV
attr interpolationmode sample-hold
attr source radioModeChanged
attr title "Radio mode, vector"
vector 23 AODVnormal.host[23].wlan[0].radio radioMode:vector ETV
attr interpolationmode sample-hold
attr source radioModeChanged
attr title "Radio mode, vector"
vector 24 AODVnormal.host[24].wlan[0].radio radioMode:vector ETV
attr interpolationmode sample-hold
attr source radioModeChanged
attr title "Radio mode, vector"
vector 25 AODVnormal.host[25].wlan[0].radio radioMode:vector ETV
attr interpolationmode sample-hold
attr source radioModeChanged
attr title "Radio mode, vector"
vector 26 AODVnormal.host[26].wlan[0].radio radioMode:vector ETV
attr interpolationmode sample-hold
attr source radioModeChanged
attr title "Radio mode, vector"
vector 27 AODVnormal.host[27].wlan[0].radio radioMode:vector ETV
attr interpolationmode sample-hold
attr source radioModeChanged
attr title "Radio mode, vector"
vector 28 AODVnormal.host[28].wlan[0].radio radioMode:vector ETV
attr interpolationmode sample-hold
attr source radioModeChanged
attr title "Radio mode, vector"
vector 29 AODVnormal.host[29].wlan[0].radio radioMode:vector ETV
attr interpolationmode sample-hold
attr source radioModeChanged
attr title "Radio mode, vector"
vector 30 AODVnormal.host[30].wlan[0].radio radioMode:vector ETV
attr interpolationmode sample-hold
attr source radioModeChanged
attr title "Radio mode, vector"
vector 31 AODVnormal.host[31].wlan[0].radio radioMode:vector ETV
attr interpolationmode sample-hold
attr source radioModeChanged
attr title "Radio mode, vector"
vector 32 AODVnormal.host[32].wlan[0].radio radioMode:vector ETV
attr interpolationmode sample-hold
attr source radioModeChanged
attr title "Radio mode, vector"
vector 33 AODVnormal.host[33].wlan[0].radio radioMode:vector ETV
attr interpolationmode sample-hold
attr source radioModeChanged
attr title "Radio mode, vector"
vector 34 AODVnormal.host[34].wlan[0].radio radioMode:vector ETV
attr interpolationmode sample-hold
attr source radioModeChanged
attr title "Radio mode, vector"
vector 35 AODVnormal.host[35].wlan[0].radio radioMode:vector ETV
attr interpolationmode sample-hold
attr source radioModeChanged
attr title "Radio mode, vector"
vector 36 AODVnormal.host[36].wlan[0].radio radioMode:vector ETV
attr interpolationmode sample-hold
attr source radioModeChanged
attr title "Radio mode, vector"
vector 37 AODVnormal.host[37].wlan[0].radio radioMode:vector ETV
attr interpolationmode sample-hold
attr source radioModeChanged
attr title "Radio mode, vector"
vector 38 AODVnormal.sender.wlan[0].radio radioMode:vector ETV
attr interpolationmode sample-hold
attr source radioModeChanged
attr title "Radio mode, vector"
vector 39 AODVnormal.receiver.wlan[0].radio radioMode:vector ETV
attr interpolationmode sample-hold
attr source radioModeChanged
attr title "Radio mode, vector"
vector 40 AODVnormal.host[0].wlan[0].radio receptionState:vector ETV
attr interpolationmode sample-hold
attr source receptionStateChanged
attr title "Radio reception state, vector"
vector 41 AODVnormal.host[0].wlan[0].radio transmissionState:vector ETV
attr interpolationmode sample-hold
attr source transmissionStateChanged
attr title "Radio transmission state, vector"
vector 42 AODVnormal.host[1].wlan[0].radio receptionState:vector ETV
attr interpolationmode sample-hold
attr source receptionStateChanged
attr title "Radio reception state, vector"
vector 43 AODVnormal.host[1].wlan[0].radio transmissionState:vector ETV
attr interpolationmode sample-hold
attr source transmissionStateChanged
attr title "Radio transmission state, vector"
vector 44 AODVnormal.host[2].wlan[0].radio receptionState:vector ETV
attr interpolationmode sample-hold
attr source receptionStateChanged
attr title "Radio reception state, vector"
vector 45 AODVnormal.host[2].wlan[0].radio transmissionState:vector ETV
attr interpolationmode sample-hold
attr source transmissionStateChanged
attr title "Radio transmission state, vector"
vector 46 AODVnormal.host[3].wlan[0].radio receptionState:vector ETV
attr interpolationmode sample-hold
attr source receptionStateChanged
attr title "Radio reception state, vector"
vector 47 AODVnormal.host[3].wlan[0].radio transmissionState:vector ETV
attr interpolationmode sample-hold
attr source transmissionStateChanged
attr title "Radio transmission state, vector"
vector 48 AODVnormal.host[4].wlan[0].radio receptionState:vector ETV
attr interpolationmode sample-hold
attr source receptionStateChanged
attr title "Radio reception state, vector"
vector 49 AODVnormal.host[4].wlan[0].radio transmissionState:vector ETV
attr interpolationmode sample-hold
attr source transmissionStateChanged
attr title "Radio transmission state, vector"
vector 50 AODVnormal.host[5].wlan[0].radio receptionState:vector ETV
attr interpolationmode sample-hold
attr source receptionStateChanged
attr title "Radio reception state, vector"
vector 51 AODVnormal.host[5].wlan[0].radio transmissionState:vector ETV
attr interpolationmode sample-hold
attr source transmissionStateChanged
attr title "Radio transmission state, vector"
vector 52 AODVnormal.host[6].wlan[0].radio receptionState:vector ETV
attr interpolationmode sample-hold
attr source receptionStateChanged
attr title "Radio reception state, vector"
vector 53 AODVnormal.host[6].wlan[0].radio transmissionState:vector ETV
attr interpolationmode sample-hold
attr source transmissionStateChanged
attr title "Radio transmission state, vector"
vector 54 AODVnormal.host[7].wlan[0].radio receptionState:vector ETV
attr interpolationmode sample-hold
attr source receptionStateChanged
attr title "Radio reception state, vector"
vector 55 AODVnormal.host[7].wlan[0].radio transmissionState:vector ETV
attr interpolationmode sample-hold
attr source transmissionStateChanged
attr title "Radio transmission state, vector"
vector 56 AODVnormal.host[8].wlan[0].radio receptionState:vector ETV
attr interpolationmode sample-hold
attr source receptionStateChanged
attr title "Radio reception state, vector"
vector 57 AODVnormal.host[8].wlan[0].radio transmissionState:vector ETV
attr interpolationmode sample-hold
attr source transmissionStateChanged
attr title "Radio transmission state, vector"
vector 58 AODVnormal.host[9].wlan[0].radio receptionState:vector ETV
attr interpolationmode sample-hold
attr source receptionStateChanged
attr title "Radio reception state, vector"
vector 59 AODVnormal.host[9].wlan[0].radio transmissionState:vector ETV
attr interpolationmode sample-hold
attr source transmissionStateChanged
attr title "Radio transmission state, vector"
vector 60 AODVnormal.host[10].wlan[0].radio receptionState:vector ETV
attr interpolationmode sample-hold
attr source receptionStateChanged
attr title "Radio reception state, vector"
vector 61 AODVnormal.host[10].wlan[0].radio transmissionState:vector ETV
attr interpolationmode sample-hold
attr source transmissionStateChanged
attr title "Radio transmission state, vector"
vector 62 AODVnormal.host[11].wlan[0].radio receptionState:vector ETV
attr interpolationmode sample-hold
attr source receptionStateChanged
attr title "Radio reception state, vector"
vector 63 AODVnormal.host[11].wlan[0].radio transmissionState:vector ETV
attr interpolationmode sample-hold
attr source transmissionStateChanged
attr title "Radio transmission state, vector"
vector 64 AODVnormal.host[12].wlan[0].radio receptionState:vector ETV
attr interpolationmode sample-hold
attr source receptionStateChanged
attr title "Radio reception state, vector"
vector 65 AODVnormal.host[12].wlan[0].radio transmissionState:vector ETV
attr interpolationmode sample-hold
attr source transmissionStateChanged
attr title "Radio transmission state, vector"
vector 66 AODVnormal.host[13].wlan[0].radio receptionState:vector ETV
attr interpolationmode sample-hold
attr source receptionStateChanged
attr title "Radio reception state, vector"
vector 67 AODVnormal.host[13].wlan[0].radio transmissionState:vector ETV
attr interpolationmode sample-hold
attr source transmissionStateChanged
attr title "Radio transmission state, vector"
vector 68 AODVnormal.host[14].wlan[0].radio receptionState:vector ETV
attr interpolationmode sample-hold
attr source receptionStateChanged
attr title "Radio reception state, vector"
vector 69 AODVnormal.host[14].wlan[0].radio transmissionState:vector ETV
attr interpolationmode sample-hold
attr source transmissionStateChanged
attr title "Radio transmission state, vector"
vector 70 AODVnormal.host[15].wlan[0].radio receptionState:vector ETV
attr interpolationmode sample-hold
attr source receptionStateChanged
attr title "Radio reception state, vector"
vector 71 AODVnormal.host[15].wlan[0].radio transmissionState:vector ETV
attr interpolationmode sample-hold
attr source transmissionStateChanged
attr title "Radio transmission state, vector"
vector 72 AODVnormal.host[16].wlan[0].radio receptionState:vector ETV
attr interpolationmode sample-hold
attr source receptionStateChanged
attr title "Radio reception state, vector"
vector 73 AODVnormal.host[16].wlan[0].radio transmissionState:vector ETV
attr interpolationmode sample-hold
attr source transmissionStateChanged
attr title "Radio transmission state, vector"
vector 74 AODVnormal.host[17].wlan[0].radio receptionState:vector ETV
attr interpolationmode sample-hold
attr source receptionStateChanged
attr title "Radio reception state, vector"
vector 75 AODVnormal.host[17].wlan[0].radio transmissionState:vector ETV
attr interpolationmode sample-hold
attr source transmissionStateChanged
attr title "Radio transmission state, vector"
vector 76 AODVnormal.host[18].wlan[0].radio receptionState:vector ETV
attr interpolationmode sample-hold
attr source receptionStateChanged
attr title "Radio reception state, vector"
vector 77 AODVnormal.host[18].wlan[0].radio transmissionState:vector ETV
attr interpolationmode sample-hold
attr source transmissionStateChanged
attr title "Radio transmission state, vector"
vector 78 AODVnormal.host[19].wlan[0].radio receptionState:vector ETV
attr interpolationmode sample-hold
attr source receptionStateChanged
attr title "Radio reception state, vector"
vector 79 AODVnormal.host[19].wlan[0].radio transmissionState:vector ETV
attr interpolationmode sample-hold
attr source transmissionStateChanged
attr title "Radio transmission state, vector"
vector 80 AODVnormal.host[20].wlan[0].radio receptionState:vector ETV
attr interpolationmode sample-hold
attr source receptionStateChanged
attr title "Radio reception state, vector"
vector 81 AODVnormal.host[20].wlan[0].radio transmissionState:vector ETV
attr interpolationmode sample-hold
attr source transmissionStateChanged
attr title "Radio transmission state, vector"
vector 82 AODVnormal.host[21].wlan[0].radio receptionState:vector ETV
attr interpolationmode sample-hold
attr source receptionStateChanged
attr title "Radio reception state, vector"
vector 83 AODVnormal.host[21].wlan[0].radio transmissionState:vector ETV
attr interpolationmode sample-hold
attr source transmissionStateChanged
attr title "Radio transmission state, vector"
vector 84 AODVnormal.host[22].wlan[0].radio receptionState:vector ETV
attr interpolationmode sample-hold
attr source receptionStateChanged
attr title "Radio reception state, vector"
vector 85 AODVnormal.host[22].wlan[0].radio transmissionState:vector ETV
attr interpolationmode sample-hold
attr source transmissionStateChanged
attr title "Radio transmission state, vector"
vector 86 AODVnormal.host[23].wlan[0].radio receptionState:vector ETV
attr interpolationmode sample-hold
attr source receptionStateChanged
attr title "Radio reception state, vector"
vector 87 AODVnormal.host[23].wlan[0].radio transmissionState:vector ETV
attr interpolationmode sample-hold
attr source transmissionStateChanged
attr title "Radio transmission state, vector"
vector 88 AODVnormal.host[24].wlan[0].radio receptionState:vector ETV
attr interpolationmode sample-hold
attr source receptionStateChanged
attr title "Radio reception state, vector"
vector 89 AODVnormal.host[24].wlan[0].radio transmissionState:vector ETV
attr interpolationmode sample-hold
attr source transmissionStateChanged
attr title "Radio transmission state, vector"
vector 90 AODVnormal.host[25].wlan[0].radio receptionState:vector ETV
attr interpolationmode sample-hold
attr source receptionStateChanged
attr title "Radio reception state, vector"
vector 91 AODVnormal.host[25].wlan[0].radio transmissionState:vector ETV
attr interpolationmode sample-hold
attr source transmissionStateChanged
attr title "Radio transmission state, vector"
vector 92 AODVnormal.host[26].wlan[0].radio receptionState:vector ETV
attr interpolationmode sample-hold
attr source receptionStateChanged
attr title "Radio reception state, vector"
vector 93 AODVnormal.host[26].wlan[0].radio transmissionState:vector ETV
attr interpolationmode sample-hold
attr source transmissionStateChanged
attr title "Radio transmission state, vector"
vector 94 AODVnormal.host[27].wlan[0].radio receptionState:vector ETV
attr interpolationmode sample-hold
attr source receptionStateChanged
attr title "Radio reception state, vector"
vector 95 AODVnormal.host[27].wlan[0].radio transmissionState:vector ETV
attr interpolationmode sample-hold
attr source transmissionStateChanged
attr title "Radio transmission state, vector"
vector 96 AODVnormal.host[28].wlan[0].radio receptionState:vector ETV
attr interpolationmode sample-hold
attr source receptionStateChanged
attr title "Radio reception state, vector"
vector 97 AODVnormal.host[28].wlan[0].radio transmissionState:vector ETV
attr interpolationmode sample-hold
attr source transmissionStateChanged
attr title "Radio transmission state, vector"
vector 98 AODVnormal.host[29].wlan[0].radio receptionState:vector ETV
attr interpolationmode sample-hold
attr source receptionStateChanged
attr title "Radio reception state, vector"
vector 99 AODVnormal.host[29].wlan[0].radio transmissionState:vector ETV
attr interpolationmode sample-hold
attr source transmissionStateChanged
attr title "Radio transmission state, vector"
vector 100 AODVnormal.host[30].wlan[0].radio receptionState:vector ETV
attr interpolationmode sample-hold
attr source receptionStateChanged
attr title "Radio reception state, vector"
vector 101 AODVnormal.host[30].wlan[0].radio transmissionState:vector ETV
attr interpolationmode sample-hold
attr source transmissionStateChanged
attr title "Radio transmission state, vector"
vector 102 AODVnormal.host[31].wlan[0].radio receptionState:vector ETV
attr interpolationmode sample-hold
attr source receptionStateChanged
attr title "Radio reception state, vector"
vector 103 AODVnormal.host[31].wlan[0].radio transmissionState:vector ETV
attr interpolationmode sample-hold
attr source transmissionStateChanged
attr title "Radio transmission state, vector"
vector 104 AODVnormal.host[32].wlan[0].radio receptionState:vector ETV
attr interpolationmode sample-hold
attr source receptionStateChanged
attr title "Radio reception state, vector"
vector 105 AODVnormal.host[32].wlan[0].radio transmissionState:vector ETV
attr interpolationmode sample-hold
attr source transmissionStateChanged
attr title "Radio transmission state, vector"
vector 106 AODVnormal.host[33].wlan[0].radio receptionState:vector ETV
attr interpolationmode sample-hold
attr source receptionStateChanged
attr title "Radio reception state, vector"
vector 107 AODVnormal.host[33].wlan[0].radio transmissionState:vector ETV
attr interpolationmode sample-hold
attr source transmissionStateChanged
attr title "Radio transmission state, vector"
vector 108 AODVnormal.host[34].wlan[0].radio receptionState:vector ETV
attr interpolationmode sample-hold
attr source receptionStateChanged
attr title "Radio reception state, vector"
vector 109 AODVnormal.host[34].wlan[0].radio transmissionState:vector ETV
attr interpolationmode sample-hold
attr source transmissionStateChanged
attr title "Radio transmission state, vector"
vector 110 AODVnormal.host[35].wlan[0].radio receptionState:vector ETV
attr interpolationmode sample-hold
attr source receptionStateChanged
attr title "Radio reception state, vector"
vector 111 AODVnormal.host[35].wlan[0].radio transmissionState:vector ETV
attr interpolationmode sample-hold
attr source transmissionStateChanged
attr title "Radio transmission state, vector"
vector 112 AODVnormal.host[36].wlan[0].radio receptionState:vector ETV
attr interpolationmode sample-hold
attr source receptionStateChanged
attr title "Radio reception state, vector"
vector 113 AODVnormal.host[36].wlan[0].radio transmissionState:vector ETV
attr interpolationmode sample-hold
attr source transmissionStateChanged
attr title "Radio transmission state, vector"
vector 114 AODVnormal.host[37].wlan[0].radio receptionState:vector ETV
attr interpolationmode sample-hold
attr source receptionStateChanged
attr title "Radio reception state, vector"
vector 115 AODVnormal.host[37].wlan[0].radio transmissionState:vector ETV
attr interpolationmode sample-hold
attr source transmissionStateChanged
attr title "Radio transmission state, vector"
vector 116 AODVnormal.sender.wlan[0].radio receptionState:vector ETV
attr interpolationmode sample-hold
attr source receptionStateChanged
attr title "Radio reception state, vector"
vector 117 AODVnormal.sender.wlan[0].radio transmissionState:vector ETV
attr interpolationmode sample-hold
attr source transmissionStateChanged
attr title "Radio transmission state, vector"
vector 118 AODVnormal.receiver.wlan[0].radio receptionState:vector ETV
attr interpolationmode sample-hold
attr source receptionStateChanged
attr title "Radio reception state, vector"
vector 119 AODVnormal.receiver.wlan[0].radio transmissionState:vector ETV
attr interpolationmode sample-hold
attr source transmissionStateChanged
attr title "Radio transmission state, vector"
vector 120 AODVnormal.sender.app[0] packetSent:vector(packetBytes) ETV
attr interpolationmode none
attr source packetSent
attr title "packets sent, vector(packetBytes)"
vector 121 AODVnormal.sender.udp packetSent:vector(packetBytes) ETV
attr interpolationmode none
attr source packetSent
attr title "packets sent, vector(packetBytes)"
vector 122 AODVnormal.sender.wlan[0].mac rcvdPkFromHl:vector(packetBytes) ETV
attr interpolationmode none
attr source packetReceivedFromUpper
attr title "packets received from higher layer, vector(packetBytes)"
vector 123 AODVnormal.sender.wlan[0].mac.queue packetPushed:vector(packetBytes) ETV
attr interpolationmode none
attr title "packet pushed, vector(packetBytes)"
vector 124 AODVnormal.sender.wlan[0].mac.queue queueLength:vector ETV
attr interpolationmode sample-hold
attr source "count(packetPushed) - count(packetPopped) - count(packetRemoved) - count(packetDropped)"
attr title "queue length, vector"
vector 125 AODVnormal.sender.wlan[0].mac.queue packetPopped:vector(packetBytes) ETV
attr interpolationmode none
attr title "packet popped, vector(packetBytes)"
vector 126 AODVnormal.sender.wlan[0].mac.queue queueingTime:vector ETV
attr interpolationmode none
attr source queueingTime(packetPopped)
attr title "queueing times, vector"
attr unit s
vector 127 AODVnormal.sender.wlan[0].mac sentDownPk:vector(packetBytes) ETV
attr interpolationmode none
attr source packetSentToLower
attr title "packets sent to lower layer, vector(packetBytes)"
vector 128 AODVnormal.host[5].wlan[0].mac rcvdPkFromLl:vector(packetBytes) ETV
attr interpolationmode none
attr source packetReceivedFromLower
attr title "packets received from lower layer, vector(packetBytes)"
vector 129 AODVnormal.host[5].wlan[0].mac passedUpPk:vector(packetBytes) ETV
attr interpolationmode none
attr source packetSentToUpper
attr title "packets passed to higher layer, vector(packetBytes)"
vector 130 AODVnormal.host[5].udp packetReceived:vector(packetBytes) ETV
attr interpolationmode none
attr source packetReceived
attr title "packets received, vector(packetBytes)"
vector 131 AODVnormal.host[5].udp passedUpPk:vector(count) ETV
attr interpolationmode none
attr source packetSentToUpper
attr title "packets passed up, vector(count)"
vector 132 AODVnormal.host[35].wlan[0].mac rcvdPkFromLl:vector(packetBytes) ETV
attr interpolationmode none
attr source packetReceivedFromLower
attr title "packets received from lower layer, vector(packetBytes)"
vector 133 AODVnormal.host[35].wlan[0].mac passedUpPk:vector(packetBytes) ETV
attr interpolationmode none
attr source packetSentToUpper
attr title "packets passed to higher layer, vector(packetBytes)"
vector 134 AODVnormal.host[35].udp packetReceived:vector(packetBytes) ETV
attr interpolationmode none
attr source packetReceived
attr title "packets received, vector(packetBytes)"
vector 135 AODVnormal.host[35].udp passedUpPk:vector(count) ETV
attr interpolationmode none
attr source packetSentToUpper
attr title "packets passed up, vector(count)"
vector 136 AODVnormal.host[28].wlan[0].mac rcvdPkFromLl:vector(packetBytes) ETV
attr interpolationmode none
attr source packetReceivedFromLower
attr title "packets received from lower layer, vector(packetBytes)"
vector 137 AODVnormal.host[28].wlan[0].mac passedUpPk:vector(packetBytes) ETV
attr interpolationmode none
attr source packetSentToUpper
attr title "packets passed to higher layer, vector(packetBytes)"
vector 138 AODVnormal.host[28].udp packetReceived:vector(packetBytes) ETV
attr interpolationmode none
attr source packetReceived
attr title "packets received, vector(packetBytes)"
vector 139 AODVnormal.host[28].udp passedUpPk:vector(count) ETV
attr interpolationmode none
attr source packetSentToUpper
attr title "packets passed up, vector(count)"
vector 140 AODVnormal.host[37].wlan[0].mac rcvdPkFromLl:vector(packetBytes) ETV
attr interpolationmode none
attr source packetReceivedFromLower
attr title "packets received from lower layer, vector(packetBytes)"
vector 141 AODVnormal.host[37].wlan[0].mac passedUpPk:vector(packetBytes) ETV
attr interpolationmode none
attr source packetSentToUpper
attr title "packets passed to higher layer, vector(packetBytes)"
vector 142 AODVnormal.host[37].udp packetReceived:vector(packetBytes) ETV
attr interpolationmode none
attr source packetReceived
attr title "packets received, vector(packetBytes)"
vector 143 AODVnormal.host[37].udp passedUpPk:vector(count) ETV
attr interpolationmode none
attr source packetSentToUpper
attr title "packets passed up, vector(count)"
vector 144 AODVnormal.host[2].wlan[0].mac rcvdPkFromLl:vector(packetBytes) ETV
attr interpolationmode none
attr source packetReceivedFromLower
attr title "packets received from lower layer, vector(packetBytes)"
vector 145 AODVnormal.host[2].wlan[0].mac passedUpPk:vector(packetBytes) ETV
attr interpolationmode none
attr source packetSentToUpper
attr title "packets passed to higher layer, vector(packetBytes)"
vector 146 AODVnormal.host[2].udp packetReceived:vector(packetBytes) ETV
attr interpolationmode none
attr source packetReceived
attr title "packets received, vector(packetBytes)"
vector 147 AODVnormal.host[2].udp passedUpPk:vector(count) ETV
attr interpolationmode none
attr source packetSentToUpper
attr title "packets passed up, vector(count)"
vector 148 AODVnormal.host[12].wlan[0].mac rcvdPkFromLl:vector(packetBytes) ETV
attr interpolationmode none
attr source packetReceivedFromLower
attr title "packets received from lower layer, vector(packetBytes)"
vector 149 AODVnormal.host[12].wlan[0].mac passedUpPk:vector(packetBytes) ETV
attr interpolationmode none
attr source packetSentToUpper
attr title "packets passed to higher layer, vector(packetBytes)"
vector 150 AODVnormal.host[12].udp packetReceived:vector(packetBytes) ETV
attr interpolationmode none
attr source packetReceived
attr title "packets received, vector(packetBytes)"
vector 151 AODVnormal.host[12].udp passedUpPk:vector(count) ETV
attr interpolationmode none
attr source packetSentToUpper
attr title "packets passed up, vector(count)"
vector 152 AODVnormal.host[1].wlan[0].mac rcvdPkFromLl:vector(packetBytes) ETV
attr interpolationmode none
attr source packetReceivedFromLower
attr title "packets received from lower layer, vector(packetBytes)"
vector 153 AODVnormal.host[1].wlan[0].mac passedUpPk:vector(packetBytes) ETV
attr interpolationmode none
attr source packetSentToUpper
attr title "packets passed to higher layer, vector(packetBytes)"
vector 154 AODVnormal.host[1].udp packetReceived:vector(packetBytes) ETV
attr interpolationmode none
attr source packetReceived
attr title "packets received, vector(packetBytes)"
vector 155 AODVnormal.host[1].udp passedUpPk:vector(count) ETV
attr interpolationmode none
attr source packetSentToUpper
attr title "packets passed up, vector(count)"
vector 156 AODVnormal.host[1].udp packetSent:vector(packetBytes) ETV
attr interpolationmode none
attr source packetSent
attr title "packets sent, vector(packetBytes)"
vector 157 AODVnormal.host[1].wlan[0].mac rcvdPkFromHl:vector(packetBytes) ETV
attr interpolationmode none
attr source packetReceivedFromUpper
attr title "packets received from higher layer, vector(packetBytes)"
vector 158 AODVnormal.host[1].wlan[0].mac.queue packetPushed:vector(packetBytes) ETV
attr interpolationmode none
attr title "packet pushed, vector(packetBytes)"
vector 159 AODVnormal.host[1].wlan[0].mac.queue queueLength:vector ETV
attr interpolationmode sample-hold
attr source "count(packetPushed) - count(packetPopped) - count(packetRemoved) - count(packetDropped)"
attr title "queue length, vector"
vector 160 AODVnormal.host[1].wlan[0].mac.queue packetPopped:vector(packetBytes) ETV
attr interpolationmode none
attr title "packet popped, vector(packetBytes)"
vector 161 AODVnormal.host[1].wlan[0].mac.queue queueingTime:vector ETV
attr interpolationmode none
attr source queueingTime(packetPopped)
attr title "queueing times, vector"
attr unit s
vector 162 AODVnormal.host[1].wlan[0].mac sentDownPk:vector(packetBytes) ETV
attr interpolationmode none
attr source packetSentToLower
attr title "packets sent to lower layer, vector(packetBytes)"
vector 163 AODVnormal.host[27].wlan[0].mac rcvdPkFromLl:vector(packetBytes) ETV
attr interpolationmode none
attr source packetReceivedFromLower
attr title "packets received from lower layer, vector(packetBytes)"
vector 164 AODVnormal.host[27].wlan[0].mac passedUpPk:vector(packetBytes) ETV
attr interpolationmode none
attr source packetSentToUpper
attr title "packets passed to higher layer, vector(packetBytes)"
vector 165 AODVnormal.host[27].udp packetReceived:vector(packetBytes) ETV
attr interpolationmode none
attr source packetReceived
attr title "packets received, vector(packetBytes)"
vector 166 AODVnormal.host[27].udp passedUpPk:vector(count) ETV
attr interpolationmode none
attr source packetSentToUpper
attr title "packets passed up, vector(count)"
vector 167 AODVnormal.host[10].wlan[0].mac rcvdPkFromLl:vector(packetBytes) ETV
attr interpolationmode none
attr source packetReceivedFromLower
attr title "packets received from lower layer, vector(packetBytes)"
vector 168 AODVnormal.host[10].wlan[0].mac passedUpPk:vector(packetBytes) ETV
attr interpolationmode none
attr source packetSentToUpper
attr title "packets passed to higher layer, vector(packetBytes)"
vector 169 AODVnormal.host[10].udp packetReceived:vector(packetBytes) ETV
attr interpolationmode none
attr source packetReceived
attr title "packets received, vector(packetBytes)"
vector 170 AODVnormal.host[10].udp passedUpPk:vector(count) ETV
attr interpolationmode none
attr source packetSentToUpper
attr title "packets passed up, vector(count)"
vector 171 AODVnormal.host[30].wlan[0].mac rcvdPkFromLl:vector(packetBytes) ETV
attr interpolationmode none
attr source packetReceivedFromLower
attr title "packets received from lower layer, vector(packetBytes)"
vector 172 AODVnormal.host[30].wlan[0].mac passedUpPk:vector(packetBytes) ETV
attr interpolationmode none
attr source packetSentToUpper
attr title "packets passed to higher layer, vector(packetBytes)"
vector 173 AODVnormal.host[30].udp packetReceived:vector(packetBytes) ETV
attr interpolationmode none
attr source packetReceived
attr title "packets received, vector(packetBytes)"
vector 174 AODVnormal.host[30].udp passedUpPk:vector(count) ETV
attr interpolationmode none
attr source packetSentToUpper
attr title "packets passed up, vector(count)"
vector 175 AODVnormal.host[26].wlan[0].mac rcvdPkFromLl:vector(packetBytes) ETV
attr interpolationmode none
attr source packetReceivedFromLower
attr title "packets received from lower layer, vector(packetBytes)"
vector 176 AODVnormal.host[26].wlan[0].mac passedUpPk:vector(packetBytes) ETV
attr interpolationmode none
attr source packetSentToUpper
attr title "packets passed to higher layer, vector(packetBytes)"
vector 177 AODVnormal.host[26].udp packetReceived:vector(packetBytes) ETV
attr interpolationmode none
attr source packetReceived
attr title "packets received, vector(packetBytes)"
vector 178 AODVnormal.host[26].udp passedUpPk:vector(count) ETV
attr interpolationmode none
attr source packetSentToUpper
attr title "packets passed up, vector(count)"
vector 179 AODVnormal.host[3].wlan[0].mac rcvdPkFromLl:vector(packetBytes) ETV
attr interpolationmode none
attr source packetReceivedFromLower
attr title "packets received from lower layer, vector(packetBytes)"
vector 180 AODVnormal.host[3].wlan[0].mac passedUpPk:vector(packetBytes) ETV
attr interpolationmode none
attr source packetSentToUpper
attr title "packets passed to higher layer, vector(packetBytes)"
vector 181 AODVnormal.host[3].udp packetReceived:vector(packetBytes) ETV
attr interpolationmode none
attr source packetReceived
attr title "packets received, vector(packetBytes)"
vector 182 AODVnormal.host[3].udp passedUpPk:vector(count) ETV
attr interpolationmode none
attr source packetSentToUpper
attr title "packets passed up, vector(count)"
vector 183 AODVnormal.host[23].wlan[0].mac rcvdPkFromLl:vector(packetBytes) ETV
attr interpolationmode none
attr source packetReceivedFromLower
attr title "packets received from lower layer, vector(packetBytes)"
vector 184 AODVnormal.host[23].wlan[0].mac passedUpPk:vector(packetBytes) ETV
attr interpolationmode none
attr source packetSentToUpper
attr title "packets passed to higher layer, vector(packetBytes)"
vector 185 AODVnormal.host[23].udp packetReceived:vector(packetBytes) ETV
attr interpolationmode none
attr source packetReceived
attr title "packets received, vector(packetBytes)"
vector 186 AODVnormal.host[23].udp passedUpPk:vector(count) ETV
attr interpolationmode none
attr source packetSentToUpper
attr title "packets passed up, vector(count)"
vector 187 AODVnormal.host[7].wlan[0].mac rcvdPkFromLl:vector(packetBytes) ETV
attr interpolationmode none
attr source packetReceivedFromLower
attr title "packets received from lower layer, vector(packetBytes)"
vector 188 AODVnormal.host[7].wlan[0].mac passedUpPk:vector(packetBytes) ETV
attr interpolationmode none
attr source packetSentToUpper
attr title "packets passed to higher layer, vector(packetBytes)"
vector 189 AODVnormal.host[7].udp packetReceived:vector(packetBytes) ETV
attr interpolationmode none
attr source packetReceived
attr title "packets received, vector(packetBytes)"
vector 190 AODVnormal.host[7].udp passedUpPk:vector(count) ETV
attr interpolationmode none
attr source packetSentToUpper
attr title "packets passed up, vector(count)"
vector 191 AODVnormal.host[36].wlan[0].mac rcvdPkFromLl:vector(packetBytes) ETV
attr interpolationmode none
attr source packetReceivedFromLower
attr title "packets received from lower layer, vector(packetBytes)"
vector 192 AODVnormal.host[36].wlan[0].mac passedUpPk:vector(packetBytes) ETV
attr interpolationmode none
attr source packetSentToUpper
attr title "packets passed to higher layer, vector(packetBytes)"
vector 193 AODVnormal.host[36].udp packetReceived:vector(packetBytes) ETV
attr interpolationmode none
attr source packetReceived
attr title "packets received, vector(packetBytes)"
vector 194 AODVnormal.host[36].udp passedUpPk:vector(count) ETV
attr interpolationmode none
attr source packetSentToUpper
attr title "packets passed up, vector(count)"
vector 195 AODVnormal.sender.wlan[0].mac rcvdPkFromLl:vector(packetBytes) ETV
attr interpolationmode none
attr source packetReceivedFromLower
attr title "packets received from lower layer, vector(packetBytes)"
vector 196 AODVnormal.sender.wlan[0].mac passedUpPk:vector(packetBytes) ETV
attr interpolationmode none
attr source packetSentToUpper
attr title "packets passed to higher layer, vector(packetBytes)"
vector 197 AODVnormal.sender.udp packetReceived:vector(packetBytes) ETV
attr interpolationmode none
attr source packetReceived
attr title "packets received, vector(packetBytes)"
vector 198 AODVnormal.sender.udp passedUpPk:vector(count) ETV
attr interpolationmode none
attr source packetSentToUpper
attr title "packets passed up, vector(count)"
vector 199 AODVnormal.host[2].udp packetSent:vector(packetBytes) ETV
attr interpolationmode none
attr source packetSent
attr title "packets sent, vector(packetBytes)"
vector 200 AODVnormal.host[2].wlan[0].mac rcvdPkFromHl:vector(packetBytes) ETV
attr interpolationmode none
attr source packetReceivedFromUpper
attr title "packets received from higher layer, vector(packetBytes)"
vector 201 AODVnormal.host[2].wlan[0].mac.queue packetPushed:vector(packetBytes) ETV
attr interpolationmode none
attr title "packet pushed, vector(packetBytes)"
vector 202 AODVnormal.host[2].wlan[0].mac.queue queueLength:vector ETV
attr interpolationmode sample-hold
attr source "count(packetPushed) - count(packetPopped) - count(packetRemoved) - count(packetDropped)"
attr title "queue length, vector"
vector 203 AODVnormal.host[2].wlan[0].mac.queue packetPopped:vector(packetBytes) ETV
attr interpolationmode none
attr title "packet popped, vector(packetBytes)"
vector 204 AODVnormal.host[2].wlan[0].mac.queue queueingTime:vector ETV
attr interpolationmode none
attr source queueingTime(packetPopped)
attr title "queueing times, vector"
attr unit s
vector 205 AODVnormal.host[2].wlan[0].mac sentDownPk:vector(packetBytes) ETV
attr interpolationmode none
attr source packetSentToLower
attr title "packets sent to lower layer, vector(packetBytes)"
vector 206 AODVnormal.host[28].udp packetSent:vector(packetBytes) ETV
attr interpolationmode none
attr source packetSent
attr title "packets sent, vector(packetBytes)"
vector 207 AODVnormal.host[28].wlan[0].mac rcvdPkFromHl:vector(packetBytes) ETV
attr interpolationmode none
attr source packetReceivedFromUpper
attr title "packets received from higher layer, vector(packetBytes)"
vector 208 AODVnormal.host[28].wlan[0].mac.queue packetPushed:vector(packetBytes) ETV
attr interpolationmode none
attr title "packet pushed, vector(packetBytes)"
vector 209 AODVnormal.host[28].wlan[0].mac.queue queueLength:vector ETV
attr interpolationmode sample-hold
attr source "count(packetPushed) - count(packetPopped) - count(packetRemoved) - count(packetDropped)"
attr title "queue length, vector"
vector 210 AODVnormal.host[28].wlan[0].mac.queue packetPopped:vector(packetBytes) ETV
attr interpolationmode none
attr title "packet popped, vector(packetBytes)"
vector 211 AODVnormal.host[28].wlan[0].mac.queue queueingTime:vector ETV
attr interpolationmode none
attr source queueingTime(packetPopped)
attr title "queueing times, vector"
attr unit s
vector 212 AODVnormal.host[28].wlan[0].mac sentDownPk:vector(packetBytes) ETV
attr interpolationmode none
attr source packetSentToLower
attr title "packets sent to lower layer, vector(packetBytes)"
vector 213 AODVnormal.host[14].wlan[0].mac rcvdPkFromLl:vector(packetBytes) ETV
attr interpolationmode none
attr source packetReceivedFromLower
attr title "packets received from lower layer, vector(packetBytes)"
vector 214 AODVnormal.host[14].wlan[0].mac passedUpPk:vector(packetBytes) ETV
attr interpolationmode none
attr source packetSentToUpper
attr title "packets passed to higher layer, vector(packetBytes)"
vector 215 AODVnormal.host[14].udp packetReceived:vector(packetBytes) ETV
attr interpolationmode none
attr source packetReceived
attr title "packets received, vector(packetBytes)"
vector 216 AODVnormal.host[14].udp passedUpPk:vector(count) ETV
attr interpolationmode none
attr source packetSentToUpper
attr title "packets passed up, vector(count)"
vector 217 AODVnormal.host[18].wlan[0].mac rcvdPkFromLl:vector(packetBytes) ETV
attr interpolationmode none
attr source packetReceivedFromLower
attr title "packets received from lower layer, vector(packetBytes)"
vector 218 AODVnormal.host[18].wlan[0].mac passedUpPk:vector(packetBytes) ETV
attr interpolationmode none
attr source packetSentToUpper
attr title "packets passed to higher layer, vector(packetBytes)"
vector 219 AODVnormal.host[18].udp packetReceived:vector(packetBytes) ETV
attr interpolationmode none
attr source packetReceived
attr title "packets received, vector(packetBytes)"
vector 220 AODVnormal.host[18].udp passedUpPk:vector(count) ETV
attr interpolationmode none
attr source packetSentToUpper
attr title "packets passed up, vector(count)"
vector 221 AODVnormal.host[0].wlan[0].mac rcvdPkFromLl:vector(packetBytes) ETV
attr interpolationmode none
attr source packetReceivedFromLower
attr title "packets received from lower layer, vector(packetBytes)"
vector 222 AODVnormal.host[0].wlan[0].mac passedUpPk:vector(packetBytes) ETV
attr interpolationmode none
attr source packetSentToUpper
attr title "packets passed to higher layer, vector(packetBytes)"
vector 223 AODVnormal.host[0].udp packetReceived:vector(packetBytes) ETV
attr interpolationmode none
attr source packetReceived
attr title "packets received, vector(packetBytes)"
vector 224 AODVnormal.host[0].udp passedUpPk:vector(count) ETV
attr interpolationmode none
attr source packetSentToUpper
attr title "packets passed up, vector(count)"
vector 225 AODVnormal.host[9].wlan[0].mac rcvdPkFromLl:vector(packetBytes) ETV
attr interpolationmode none
attr source packetReceivedFromLower
attr title "packets received from lower layer, vector(packetBytes)"
vector 226 AODVnormal.host[9].wlan[0].mac passedUpPk:vector(packetBytes) ETV
attr interpolationmode none
attr source packetSentToUpper
attr title "packets passed to higher layer, vector(packetBytes)"
vector 227 AODVnormal.host[9].udp packetReceived:vector(packetBytes) ETV
attr interpolationmode none
attr source packetReceived
attr title "packets received, vector(packetBytes)"
vector 228 AODVnormal.host[9].udp passedUpPk:vector(count) ETV
attr interpolationmode none
attr source packetSentToUpper
attr title "packets passed up, vector(count)"
vector 229 AODVnormal.host[5].udp packetSent:vector(packetBytes) ETV
attr interpolationmode none
attr source packetSent
attr title "packets sent, vector(packetBytes)"
vector 230 AODVnormal.host[5].wlan[0].mac rcvdPkFromHl:vector(packetBytes) ETV
attr interpolationmode none
attr source packetReceivedFromUpper
attr title "packets received from higher layer, vector(packetBytes)"
vector 231 AODVnormal.host[5].wlan[0].mac.queue packetPushed:vector(packetBytes) ETV
attr interpolationmode none
attr title "packet pushed, vector(packetBytes)"
vector 232 AODVnormal.host[5].wlan[0].mac.queue queueLength:vector ETV
attr interpolationmode sample-hold
attr source "count(packetPushed) - count(packetPopped) - count(packetRemoved) - count(packetDropped)"
attr title "queue length, vector"
vector 233 AODVnormal.host[5].wlan[0].mac.queue packetPopped:vector(packetBytes) ETV
attr interpolationmode none
attr title "packet popped, vector(packetBytes)"
vector 234 AODVnormal.host[5].wlan[0].mac.queue queueingTime:vector ETV
attr interpolationmode none
attr source queueingTime(packetPopped)
attr title "queueing times, vector"
attr unit s
vector 235 AODVnormal.host[5].wlan[0].mac sentDownPk:vector(packetBytes) ETV
attr interpolationmode none
attr source packetSentToLower
attr title "packets sent to lower layer, vector(packetBytes)"
vector 236 AODVnormal.host[35].udp packetSent:vector(packetBytes) ETV
attr interpolationmode none
attr source packetSent
attr title "packets sent, vector(packetBytes)"
vector 237 AODVnormal.host[35].wlan[0].mac rcvdPkFromHl:vector(packetBytes) ETV
attr interpolationmode none
attr source packetReceivedFromUpper
attr title "packets received from higher layer, vector(packetBytes)"
vector 238 AODVnormal.host[35].wlan[0].mac.queue packetPushed:vector(packetBytes) ETV
attr interpolationmode none
attr title "packet pushed, vector(packetBytes)"
vector 239 AODVnormal.host[35].wlan[0].mac.queue queueLength:vector ETV
attr interpolationmode sample-hold
attr source "count(packetPushed) - count(packetPopped) - count(packetRemoved) - count(packetDropped)"
attr title "queue length, vector"
vector 240 AODVnormal.host[35].wlan[0].mac.queue packetPopped:vector(packetBytes) ETV
attr interpolationmode none
attr title "packet popped, vector(packetBytes)"
vector 241 AODVnormal.host[35].wlan[0].mac.queue queueingTime:vector ETV
attr interpolationmode none
attr source queueingTime(packetPopped)
attr title "queueing times, vector"
attr unit s
vector 242 AODVnormal.host[35].wlan[0].mac sentDownPk:vector(packetBytes) ETV
attr interpolationmode none
attr source packetSentToLower
attr title "packets sent to lower layer, vector(packetBytes)"
vector 243 AODVnormal.host[12].udp packetSent:vector(packetBytes) ETV
attr interpolationmode none
attr source packetSent
attr title "packets sent, vector(packetBytes)"
vector 244 AODVnormal.host[12].wlan[0].mac rcvdPkFromHl:vector(packetBytes) ETV
attr interpolationmode none
attr source packetReceivedFromUpper
attr title "packets received from higher layer, vector(packetBytes)"
vector 245 AODVnormal.host[12].wlan[0].mac.queue packetPushed:vector(packetBytes) ETV
attr interpolationmode none
attr title "packet pushed, vector(packetBytes)"
vector 246 AODVnormal.host[12].wlan[0].mac.queue queueLength:vector ETV
attr interpolationmode sample-hold
attr source "count(packetPushed) - count(packetPopped) - count(packetRemoved) - count(packetDropped)"
attr title "queue length, vector"
vector 247 AODVnormal.host[12].wlan[0].mac.queue packetPopped:vector(packetBytes) ETV
attr interpolationmode none
attr title "packet popped, vector(packetBytes)"
vector 248 AODVnormal.host[12].wlan[0].mac.queue queueingTime:vector ETV
attr interpolationmode none
attr source queueingTime(packetPopped)
attr title "queueing times, vector"
attr unit s
vector 249 AODVnormal.host[12].wlan[0].mac sentDownPk:vector(packetBytes) ETV
attr interpolationmode none
attr source packetSentToLower
attr title "packets sent to lower layer, vector(packetBytes)"
vector 250 AODVnormal.host[37].udp packetSent:vector(packetBytes) ETV
attr interpolationmode none
attr source packetSent
attr title "packets sent, vector(packetBytes)"
vector 251 AODVnormal.host[37].wlan[0].mac rcvdPkFromHl:vector(packetBytes) ETV
attr interpolationmode none
attr source packetReceivedFromUpper
attr title "packets received from higher layer, vector(packetBytes)"
vector 252 AODVnormal.host[37].wlan[0].mac.queue packetPushed:vector(packetBytes) ETV
attr interpolationmode none
attr title "packet pushed, vector(packetBytes)"
vector 253 AODVnormal.host[37].wlan[0].mac.queue queueLength:vector ETV
attr interpolationmode sample-hold
attr source "count(packetPushed) - count(packetPopped) - count(packetRemoved) - count(packetDropped)"
attr title "queue length, vector"
vector 254 AODVnormal.host[37].wlan[0].mac.queue packetPopped:vector(packetBytes) ETV
attr interpolationmode none
attr title "packet popped, vector(packetBytes)"
vector 255 AODVnormal.host[37].wlan[0].mac.queue queueingTime:vector ETV
attr interpolationmode none
attr source queueingTime(packetPopped)
attr title "queueing times, vector"
attr unit s
vector 256 AODVnormal.host[37].wlan[0].mac sentDownPk:vector(packetBytes) ETV
attr interpolationmode none
attr source packetSentToLower
attr title "packets sent to lower layer, vector(packetBytes)"
vector 257 AODVnormal.host[9].udp packetSent:vector(packetBytes) ETV
attr interpolationmode none
attr source packetSent
attr title "packets sent, vector(packetBytes)"
vector 258 AODVnormal.host[9].wlan[0].mac rcvdPkFromHl:vector(packetBytes) ETV
attr interpolationmode none
attr source packetReceivedFromUpper
attr title "packets received from higher layer, vector(packetBytes)"
vector 259 AODVnormal.host[9].wlan[0].mac.queue packetPushed:vector(packetBytes) ETV
attr interpolationmode none
attr title "packet pushed, vector(packetBytes)"
vector 260 AODVnormal.host[9].wlan[0].mac.queue queueLength:vector ETV
attr interpolationmode sample-hold
attr source "count(packetPushed) - count(packetPopped) - count(packetRemoved) - count(packetDropped)"
attr title "queue length, vector"
vector 261 AODVnormal.host[9].wlan[0].mac.queue packetPopped:vector(packetBytes) ETV
attr interpolationmode none
attr title "packet popped, vector(packetBytes)"
vector 262 AODVnormal.host[9].wlan[0].mac.queue queueingTime:vector ETV
attr interpolationmode none
attr source queueingTime(packetPopped)
attr title "queueing times, vector"
attr unit s
vector 263 AODVnormal.host[9].wlan[0].mac sentDownPk:vector(packetBytes) ETV
attr interpolationmode none
attr source packetSentToLower
attr title "packets sent to lower layer, vector(packetBytes)"
vector 264 AODVnormal.host[0].udp packetSent:vector(packetBytes) ETV
attr interpolationmode none
attr source packetSent
attr title "packets sent, vector(packetBytes)"
vector 265 AODVnormal.host[0].wlan[0].mac rcvdPkFromHl:vector(packetBytes) ETV
attr interpolationmode none
attr source packetReceivedFromUpper
attr title "packets received from higher layer, vector(packetBytes)"
vector 266 AODVnormal.host[0].wlan[0].mac.queue packetPushed:vector(packetBytes) ETV
attr interpolationmode none
attr title "packet pushed, vector(packetBytes)"
vector 267 AODVnormal.host[0].wlan[0].mac.queue queueLength:vector ETV
attr interpolationmode sample-hold
attr source "count(packetPushed) - count(packetPopped) - count(packetRemoved) - count(packetDropped)"
attr title "queue length, vector"
vector 268 AODVnormal.host[0].wlan[0].mac.queue packetPopped:vector(packetBytes) ETV
attr interpolationmode none
attr title "packet popped, vector(packetBytes)"
vector 269 AODVnormal.host[0].wlan[0].mac.queue queueingTime:vector ETV
attr interpolationmode none
attr source queueingTime(packetPopped)
attr title "queueing times, vector"
attr unit s
vector 270 AODVnormal.host[0].wlan[0].mac sentDownPk:vector(packetBytes) ETV
attr interpolationmode none
attr source packetSentToLower
attr title "packets sent to lower layer, vector(packetBytes)"
vector 271 AODVnormal.host[26].udp packetSent:vector(packetBytes) ETV
attr interpolationmode none
attr source packetSent
attr title "packets sent, vector(packetBytes)"
vector 272 AODVnormal.host[26].wlan[0].mac rcvdPkFromHl:vector(packetBytes) ETV
attr interpolationmode none
attr source packetReceivedFromUpper
attr title "packets received from higher layer, vector(packetBytes)"
vector 273 AODVnormal.host[26].wlan[0].mac.queue packetPushed:vector(packetBytes) ETV
attr interpolationmode none
attr title "packet pushed, vector(packetBytes)"
vector 274 AODVnormal.host[26].wlan[0].mac.queue queueLength:vector ETV
attr interpolationmode sample-hold
attr source "count(packetPushed) - count(packetPopped) - count(packetRemoved) - count(packetDropped)"
attr title "queue length, vector"
vector 275 AODVnormal.host[26].wlan[0].mac.queue packetPopped:vector(packetBytes) ETV
attr interpolationmode none
attr title "packet popped, vector(packetBytes)"
vector 276 AODVnormal.host[26].wlan[0].mac.queue queueingTime:vector ETV
attr interpolationmode none
attr source queueingTime(packetPopped)
attr title "queueing times, vector"
attr unit s
vector 277 AODVnormal.host[26].wlan[0].mac sentDownPk:vector(packetBytes) ETV
attr interpolationmode none
attr source packetSentToLower
attr title "packets sent to lower layer, vector(packetBytes)"
vector 278 AODVnormal.host[3].udp packetSent:vector(packetBytes) ETV
attr interpolationmode none
attr source packetSent
attr title "packets sent, vector(packetBytes)"
vector 279 AODVnormal.host[3].wlan[0].mac rcvdPkFromHl:vector(packetBytes) ETV
attr interpolationmode none
attr source packetReceivedFromUpper
attr title "packets received from higher layer, vector(packetBytes)"
vector 280 AODVnormal.host[3].wlan[0].mac.queue packetPushed:vector(packetBytes) ETV
attr interpolationmode none
attr title "packet pushed, vector(packetBytes)"
vector 281 AODVnormal.host[3].wlan[0].mac.queue queueLength:vector ETV
attr interpolationmode sample-hold
attr source "count(packetPushed) - count(packetPopped) - count(packetRemoved) - count(packetDropped)"
attr title "queue length, vector"
vector 282 AODVnormal.host[3].wlan[0].mac.queue packetPopped:vector(packetBytes) ETV
attr interpolationmode none
attr title "packet popped, vector(packetBytes)"
vector 283 AODVnormal.host[3].wlan[0].mac.queue queueingTime:vector ETV
attr interpolationmode none
attr source queueingTime(packetPopped)
attr title "queueing times, vector"
attr unit s
vector 284 AODVnormal.host[3].wlan[0].mac sentDownPk:vector(packetBytes) ETV
attr interpolationmode none
attr source packetSentToLower
attr title "packets sent to lower layer, vector(packetBytes)"
vector 285 AODVnormal.host[24].wlan[0].mac rcvdPkFromLl:vector(packetBytes) ETV
attr interpolationmode none
attr source packetReceivedFromLower
attr title "packets received from lower layer, vector(packetBytes)"
vector 286 AODVnormal.host[24].wlan[0].mac passedUpPk:vector(packetBytes) ETV
attr interpolationmode none
attr source packetSentToUpper
attr title "packets passed to higher layer, vector(packetBytes)"
vector 287 AODVnormal.host[24].udp packetReceived:vector(packetBytes) ETV
attr interpolationmode none
attr source packetReceived
attr title "packets received, vector(packetBytes)"
vector 288 AODVnormal.host[24].udp passedUpPk:vector(count) ETV
attr interpolationmode none
attr source packetSentToUpper
attr title "packets passed up, vector(count)"
vector 289 AODVnormal.host[36].udp packetSent:vector(packetBytes) ETV
attr interpolationmode none
attr source packetSent
attr title "packets sent, vector(packetBytes)"
vector 290 AODVnormal.host[36].wlan[0].mac rcvdPkFromHl:vector(packetBytes) ETV
attr interpolationmode none
attr source packetReceivedFromUpper
attr title "packets received from higher layer, vector(packetBytes)"
vector 291 AODVnormal.host[36].wlan[0].mac.queue packetPushed:vector(packetBytes) ETV
attr interpolationmode none
attr title "packet pushed, vector(packetBytes)"
vector 292 AODVnormal.host[36].wlan[0].mac.queue queueLength:vector ETV
attr interpolationmode sample-hold
attr source "count(packetPushed) - count(packetPopped) - count(packetRemoved) - count(packetDropped)"
attr title "queue length, vector"
vector 293 AODVnormal.host[36].wlan[0].mac.queue packetPopped:vector(packetBytes) ETV
attr interpolationmode none
attr title "packet popped, vector(packetBytes)"
vector 294 AODVnormal.host[36].wlan[0].mac.queue queueingTime:vector ETV
attr interpolationmode none
attr source queueingTime(packetPopped)
attr title "queueing times, vector"
attr unit s
vector 295 AODVnormal.host[36].wlan[0].mac sentDownPk:vector(packetBytes) ETV
attr interpolationmode none
attr source packetSentToLower
attr title "packets sent to lower layer, vector(packetBytes)"
vector 296 AODVnormal.host[22].wlan[0].mac rcvdPkFromLl:vector(packetBytes) ETV
attr interpolationmode none
attr source packetReceivedFromLower
attr title "packets received from lower layer, vector(packetBytes)"
vector 297 AODVnormal.host[22].wlan[0].mac passedUpPk:vector(packetBytes) ETV
attr interpolationmode none
attr source packetSentToUpper
attr title "packets passed to higher layer, vector(packetBytes)"
vector 298 AODVnormal.host[22].udp packetReceived:vector(packetBytes) ETV
attr interpolationmode none
attr source packetReceived
attr title "packets received, vector(packetBytes)"
vector 299 AODVnormal.host[22].udp passedUpPk:vector(count) ETV
attr interpolationmode none
attr source packetSentToUpper
attr title "packets passed up, vector(count)"
vector 300 AODVnormal.host[27].udp packetSent:vector(packetBytes) ETV
attr interpolationmode none
attr source packetSent
attr title "packets sent, vector(packetBytes)"
vector 301 AODVnormal.host[27].wlan[0].mac rcvdPkFromHl:vector(packetBytes) ETV
attr interpolationmode none
attr source packetReceivedFromUpper
attr title "packets received from higher layer, vector(packetBytes)"
vector 302 AODVnormal.host[27].wlan[0].mac.queue packetPushed:vector(packetBytes) ETV
attr interpolationmode none
attr title "packet pushed, vector(packetBytes)"
vector 303 AODVnormal.host[27].wlan[0].mac.queue queueLength:vector ETV
attr interpolationmode sample-hold
attr source "count(packetPushed) - count(packetPopped) - count(packetRemoved) - count(packetDropped)"
attr title "queue length, vector"
vector 304 AODVnormal.host[27].wlan[0].mac.queue packetPopped:vector(packetBytes) ETV
attr interpolationmode none
attr title "packet popped, vector(packetBytes)"
vector 305 AODVnormal.host[27].wlan[0].mac.queue queueingTime:vector ETV
attr interpolationmode none
attr source queueingTime(packetPopped)
attr title "queueing times, vector"
attr unit s
vector 306 AODVnormal.host[27].wlan[0].mac sentDownPk:vector(packetBytes) ETV
attr interpolationmode none
attr source packetSentToLower
attr title "packets sent to lower layer, vector(packetBytes)"
vector 307 AODVnormal.host[30].udp packetSent:vector(packetBytes) ETV
attr interpolationmode none
attr source packetSent
attr title "packets sent, vector(packetBytes)"
vector 308 AODVnormal.host[30].wlan[0].mac rcvdPkFromHl:vector(packetBytes) ETV
attr interpolationmode none
attr source packetReceivedFromUpper
attr title "packets received from higher layer, vector(packetBytes)"
vector 309 AODVnormal.host[30].wlan[0].mac.queue packetPushed:vector(packetBytes) ETV
attr interpolationmode none
attr title "packet pushed, vector(packetBytes)"
vector 310 AODVnormal.host[30].wlan[0].mac.queue queueLength:vector ETV
attr interpolationmode sample-hold
attr source "count(packetPushed) - count(packetPopped) - count(packetRemoved) - count(packetDropped)"
attr title "queue length, vector"
vector 311 AODVnormal.host[30].wlan[0].mac.queue packetPopped:vector(packetBytes) ETV
attr interpolationmode none
attr title "packet popped, vector(packetBytes)"
vector 312 AODVnormal.host[30].wlan[0].mac.queue queueingTime:vector ETV
attr interpolationmode none
attr source queueingTime(packetPopped)
attr title "queueing times, vector"
attr unit s
vector 313 AODVnormal.host[30].wlan[0].mac sentDownPk:vector(packetBytes) ETV
attr interpolationmode none
attr source packetSentToLower
attr title "packets sent to lower layer, vector(packetBytes)"
vector 314 AODVnormal.host[24].udp packetSent:vector(packetBytes) ETV
attr interpolationmode none
attr source packetSent
attr title "packets sent, vector(packetBytes)"
vector 315 AODVnormal.host[24].wlan[0].mac rcvdPkFromHl:vector(packetBytes) ETV
attr interpolationmode none
attr source packetReceivedFromUpper
attr title "packets received from higher layer, vector(packetBytes)"
vector 316 AODVnormal.host[24].wlan[0].mac.queue packetPushed:vector(packetBytes) ETV
attr interpolationmode none
attr title "packet pushed, vector(packetBytes)"
vector 317 AODVnormal.host[24].wlan[0].mac.queue queueLength:vector ETV
attr interpolationmode sample-hold
attr source "count(packetPushed) - count(packetPopped) - count(packetRemoved) - count(packetDropped)"
attr title "queue length, vector"
vector 318 AODVnormal.host[24].wlan[0].mac.queue packetPopped:vector(packetBytes) ETV
attr interpolationmode none
attr title "packet popped, vector(packetBytes)"
vector 319 AODVnormal.host[24].wlan[0].mac.queue queueingTime:vector ETV
attr interpolationmode none
attr source queueingTime(packetPopped)
attr title "queueing times, vector"
attr unit s
vector 320 AODVnormal.host[24].wlan[0].mac sentDownPk:vector(packetBytes) ETV
attr interpolationmode none
attr source packetSentToLower
attr title "packets sent to lower layer, vector(packetBytes)"
vector 321 AODVnormal.host[10].udp packetSent:vector(packetBytes) ETV
attr interpolationmode none
attr source packetSent
attr title "packets sent, vector(packetBytes)"
vector 322 AODVnormal.host[10].wlan[0].mac rcvdPkFromHl:vector(packetBytes) ETV
attr interpolationmode none
attr source packetReceivedFromUpper
attr title "packets received from higher layer, vector(packetBytes)"
vector 323 AODVnormal.host[10].wlan[0].mac.queue packetPushed:vector(packetBytes) ETV
attr interpolationmode none
attr title "packet pushed, vector(packetBytes)"
vector 324 AODVnormal.host[10].wlan[0].mac.queue queueLength:vector ETV
attr interpolationmode sample-hold
attr source "count(packetPushed) - count(packetPopped) - count(packetRemoved) - count(packetDropped)"
attr title "queue length, vector"
vector 325 AODVnormal.host[10].wlan[0].mac.queue packetPopped:vector(packetBytes) ETV
attr interpolationmode none
attr title "packet popped, vector(packetBytes)"
vector 326 AODVnormal.host[10].wlan[0].mac.queue queueingTime:vector ETV
attr interpolationmode none
attr source queueingTime(packetPopped)
attr title "queueing times, vector"
attr unit s
vector 327 AODVnormal.host[10].wlan[0].mac sentDownPk:vector(packetBytes) ETV
attr interpolationmode none
attr source packetSentToLower
attr title "packets sent to lower layer, vector(packetBytes)"
vector 328 AODVnormal.host[6].wlan[0].mac rcvdPkFromLl:vector(packetBytes) ETV
attr interpolationmode none
attr source packetReceivedFromLower
attr title "packets received from lower layer, vector(packetBytes)"
vector 329 AODVnormal.host[6].wlan[0].mac passedUpPk:vector(packetBytes) ETV
attr interpolationmode none
attr source packetSentToUpper
attr title "packets passed to higher layer, vector(packetBytes)"
vector 330 AODVnormal.host[6].udp packetReceived:vector(packetBytes) ETV
attr interpolationmode none
attr source packetReceived
attr title "packets received, vector(packetBytes)"
vector 331 AODVnormal.host[6].udp passedUpPk:vector(count) ETV
attr interpolationmode none
attr source packetSentToUpper
attr title "packets passed up, vector(count)"
vector 332 AODVnormal.host[4].wlan[0].mac rcvdPkFromLl:vector(packetBytes) ETV
attr interpolationmode none
attr source packetReceivedFromLower
attr title "packets received from lower layer, vector(packetBytes)"
vector 333 AODVnormal.host[4].wlan[0].mac passedUpPk:vector(packetBytes) ETV
attr interpolationmode none
attr source packetSentToUpper
attr title "packets passed to higher layer, vector(packetBytes)"
vector 334 AODVnormal.host[4].udp packetReceived:vector(packetBytes) ETV
attr interpolationmode none
attr source packetReceived
attr title "packets received, vector(packetBytes)"
vector 335 AODVnormal.host[4].udp passedUpPk:vector(count) ETV
attr interpolationmode none
attr source packetSentToUpper
attr title "packets passed up, vector(count)"
vector 336 AODVnormal.host[13].wlan[0].mac rcvdPkFromLl:vector(packetBytes) ETV
attr interpolationmode none
attr source packetReceivedFromLower
attr title "packets received from lower layer, vector(packetBytes)"
vector 337 AODVnormal.host[13].wlan[0].mac passedUpPk:vector(packetBytes) ETV
attr interpolationmode none
attr source packetSentToUpper
attr title "packets passed to higher layer, vector(packetBytes)"
vector 338 AODVnormal.host[13].udp packetReceived:vector(packetBytes) ETV
attr interpolationmode none
attr source packetReceived
attr title "packets received, vector(packetBytes)"
vector 339 AODVnormal.host[13].udp passedUpPk:vector(count) ETV
attr interpolationmode none
attr source packetSentToUpper
attr title "packets passed up, vector(count)"
vector 340 AODVnormal.host[23].udp packetSent:vector(packetBytes) ETV
attr interpolationmode none
attr source packetSent
attr title "packets sent, vector(packetBytes)"
vector 341 AODVnormal.host[23].wlan[0].mac rcvdPkFromHl:vector(packetBytes) ETV
attr interpolationmode none
attr source packetReceivedFromUpper
attr title "packets received from higher layer, vector(packetBytes)"
vector 342 AODVnormal.host[23].wlan[0].mac.queue packetPushed:vector(packetBytes) ETV
attr interpolationmode none
attr title "packet pushed, vector(packetBytes)"
vector 343 AODVnormal.host[23].wlan[0].mac.queue queueLength:vector ETV
attr interpolationmode sample-hold
attr source "count(packetPushed) - count(packetPopped) - count(packetRemoved) - count(packetDropped)"
attr title "queue length, vector"
vector 344 AODVnormal.host[23].wlan[0].mac.queue packetPopped:vector(packetBytes) ETV
attr interpolationmode none
attr title "packet popped, vector(packetBytes)"
vector 345 AODVnormal.host[23].wlan[0].mac.queue queueingTime:vector ETV
attr interpolationmode none
attr source queueingTime(packetPopped)
attr title "queueing times, vector"
attr unit s
vector 346 AODVnormal.host[23].wlan[0].mac sentDownPk:vector(packetBytes) ETV
attr interpolationmode none
attr source packetSentToLower
attr title "packets sent to lower layer, vector(packetBytes)"
vector 347 AODVnormal.host[13].udp packetSent:vector(packetBytes) ETV
attr interpolationmode none
attr source packetSent
attr title "packets sent, vector(packetBytes)"
vector 348 AODVnormal.host[13].wlan[0].mac rcvdPkFromHl:vector(packetBytes) ETV
attr interpolationmode none
attr source packetReceivedFromUpper
attr title "packets received from higher layer, vector(packetBytes)"
vector 349 AODVnormal.host[13].wlan[0].mac.queue packetPushed:vector(packetBytes) ETV
attr interpolationmode none
attr title "packet pushed, vector(packetBytes)"
vector 350 AODVnormal.host[13].wlan[0].mac.queue queueLength:vector ETV
attr interpolationmode sample-hold
attr source "count(packetPushed) - count(packetPopped) - count(packetRemoved) - count(packetDropped)"
attr title "queue length, vector"
vector 351 AODVnormal.host[13].wlan[0].mac.queue packetPopped:vector(packetBytes) ETV
attr interpolationmode none
attr title "packet popped, vector(packetBytes)"
vector 352 AODVnormal.host[13].wlan[0].mac.queue queueingTime:vector ETV
attr interpolationmode none
attr source queueingTime(packetPopped)
attr title "queueing times, vector"
attr unit s
vector 353 AODVnormal.host[13].wlan[0].mac sentDownPk:vector(packetBytes) ETV
attr interpolationmode none
attr source packetSentToLower
attr title "packets sent to lower layer, vector(packetBytes)"
vector 354 AODVnormal.host[14].udp packetSent:vector(packetBytes) ETV
attr interpolationmode none
attr source packetSent
attr title "packets sent, vector(packetBytes)"
vector 355 AODVnormal.host[14].wlan[0].mac rcvdPkFromHl:vector(packetBytes) ETV
attr interpolationmode none
attr source packetReceivedFromUpper
attr title "packets received from higher layer, vector(packetBytes)"
vector 356 AODVnormal.host[14].wlan[0].mac.queue packetPushed:vector(packetBytes) ETV
attr interpolationmode none
attr title "packet pushed, vector(packetBytes)"
vector 357 AODVnormal.host[14].wlan[0].mac.queue queueLength:vector ETV
attr interpolationmode sample-hold
attr source "count(packetPushed) - count(packetPopped) - count(packetRemoved) - count(packetDropped)"
attr title "queue length, vector"
vector 358 AODVnormal.host[14].wlan[0].mac.queue packetPopped:vector(packetBytes) ETV
attr interpolationmode none
attr title "packet popped, vector(packetBytes)"
vector 359 AODVnormal.host[14].wlan[0].mac.queue queueingTime:vector ETV
attr interpolationmode none
attr source queueingTime(packetPopped)
attr title "queueing times, vector"
attr unit s
vector 360 AODVnormal.host[14].wlan[0].mac sentDownPk:vector(packetBytes) ETV
attr interpolationmode none
attr source packetSentToLower
attr title "packets sent to lower layer, vector(packetBytes)"
vector 361 AODVnormal.host[32].wlan[0].mac rcvdPkFromLl:vector(packetBytes) ETV
attr interpolationmode none
attr source packetReceivedFromLower
attr title "packets received from lower layer, vector(packetBytes)"
vector 362 AODVnormal.host[32].wlan[0].mac passedUpPk:vector(packetBytes) ETV
attr interpolationmode none
attr source packetSentToUpper
attr title "packets passed to higher layer, vector(packetBytes)"
vector 363 AODVnormal.host[32].udp packetReceived:vector(packetBytes) ETV
attr interpolationmode none
attr source packetReceived
attr title "packets received, vector(packetBytes)"
vector 364 AODVnormal.host[32].udp passedUpPk:vector(count) ETV
attr interpolationmode none
attr source packetSentToUpper
attr title "packets passed up, vector(count)"
vector 365 AODVnormal.host[15].wlan[0].mac rcvdPkFromLl:vector(packetBytes) ETV
attr interpolationmode none
attr source packetReceivedFromLower
attr title "packets received from lower layer, vector(packetBytes)"
vector 366 AODVnormal.host[15].wlan[0].mac passedUpPk:vector(packetBytes) ETV
attr interpolationmode none
attr source packetSentToUpper
attr title "packets passed to higher layer, vector(packetBytes)"
vector 367 AODVnormal.host[15].udp packetReceived:vector(packetBytes) ETV
attr interpolationmode none
attr source packetReceived
attr title "packets received, vector(packetBytes)"
vector 368 AODVnormal.host[15].udp passedUpPk:vector(count) ETV
attr interpolationmode none
attr source packetSentToUpper
attr title "packets passed up, vector(count)"
vector 369 AODVnormal.host[29].wlan[0].mac rcvdPkFromLl:vector(packetBytes) ETV
attr interpolationmode none
attr source packetReceivedFromLower
attr title "packets received from lower layer, vector(packetBytes)"
vector 370 AODVnormal.host[29].wlan[0].mac passedUpPk:vector(packetBytes) ETV
attr interpolationmode none
attr source packetSentToUpper
attr title "packets passed to higher layer, vector(packetBytes)"
vector 371 AODVnormal.host[29].udp packetReceived:vector(packetBytes) ETV
attr interpolationmode none
attr source packetReceived
attr title "packets received, vector(packetBytes)"
vector 372 AODVnormal.host[29].udp passedUpPk:vector(count) ETV
attr interpolationmode none
attr source packetSentToUpper
attr title "packets passed up, vector(count)"
vector 373 AODVnormal.host[8].wlan[0].mac rcvdPkFromLl:vector(packetBytes) ETV
attr interpolationmode none
attr source packetReceivedFromLower
attr title "packets received from lower layer, vector(packetBytes)"
vector 374 AODVnormal.host[8].wlan[0].mac passedUpPk:vector(packetBytes) ETV
attr interpolationmode none
attr source packetSentToUpper
attr title "packets passed to higher layer, vector(packetBytes)"
vector 375 AODVnormal.host[8].udp packetReceived:vector(packetBytes) ETV
attr interpolationmode none
attr source packetReceived
attr title "packets received, vector(packetBytes)"
vector 376 AODVnormal.host[8].udp passedUpPk:vector(count) ETV
attr interpolationmode none
attr source packetSentToUpper
attr title "packets passed up, vector(count)"
vector 377 AODVnormal.host[16].wlan[0].mac rcvdPkFromLl:vector(packetBytes) ETV
attr interpolationmode none
attr source packetReceivedFromLower
attr title "packets received from lower layer, vector(packetBytes)"
vector 378 AODVnormal.host[16].wlan[0].mac passedUpPk:vector(packetBytes) ETV
attr interpolationmode none
attr source packetSentToUpper
attr title "packets passed to higher layer, vector(packetBytes)"
vector 379 AODVnormal.host[16].udp packetReceived:vector(packetBytes) ETV
attr interpolationmode none
attr source packetReceived
attr title "packets received, vector(packetBytes)"
vector 380 AODVnormal.host[16].udp passedUpPk:vector(count) ETV
attr interpolationmode none
attr source packetSentToUpper
attr title "packets passed up, vector(count)"
vector 381 AODVnormal.host[20].wlan[0].mac rcvdPkFromLl:vector(packetBytes) ETV
attr interpolationmode none
attr source packetReceivedFromLower
attr title "packets received from lower layer, vector(packetBytes)"
vector 382 AODVnormal.host[20].wlan[0].mac passedUpPk:vector(packetBytes) ETV
attr interpolationmode none
attr source packetSentToUpper
attr title "packets passed to higher layer, vector(packetBytes)"
vector 383 AODVnormal.host[20].udp packetReceived:vector(packetBytes) ETV
attr interpolationmode none
attr source packetReceived
attr title "packets received, vector(packetBytes)"
vector 384 AODVnormal.host[20].udp passedUpPk:vector(count) ETV
attr interpolationmode none
attr source packetSentToUpper
attr title "packets passed up, vector(count)"
vector 385 AODVnormal.host[33].wlan[0].mac rcvdPkFromLl:vector(packetBytes) ETV
attr interpolationmode none
attr source packetReceivedFromLower
attr title "packets received from lower layer, vector(packetBytes)"
vector 386 AODVnormal.host[33].wlan[0].mac passedUpPk:vector(packetBytes) ETV
attr interpolationmode none
attr source packetSentToUpper
attr title "packets passed to higher layer, vector(packetBytes)"
vector 387 AODVnormal.host[33].udp packetReceived:vector(packetBytes) ETV
attr interpolationmode none
attr source packetReceived
attr title "packets received, vector(packetBytes)"
vector 388 AODVnormal.host[33].udp passedUpPk:vector(count) ETV
attr interpolationmode none
attr source packetSentToUpper
attr title "packets passed up, vector(count)"
vector 389 AODVnormal.host[16].udp packetSent:vector(packetBytes) ETV
attr interpolationmode none
attr source packetSent
attr title "packets sent, vector(packetBytes)"
vector 390 AODVnormal.host[16].wlan[0].mac rcvdPkFromHl:vector(packetBytes) ETV
attr interpolationmode none
attr source packetReceivedFromUpper
attr title "packets received from higher layer, vector(packetBytes)"
vector 391 AODVnormal.host[16].wlan[0].mac.queue packetPushed:vector(packetBytes) ETV
attr interpolationmode none
attr title "packet pushed, vector(packetBytes)"
vector 392 AODVnormal.host[16].wlan[0].mac.queue queueLength:vector ETV
attr interpolationmode sample-hold
attr source "count(packetPushed) - count(packetPopped) - count(packetRemoved) - count(packetDropped)"
attr title "queue length, vector"
vector 393 AODVnormal.host[16].wlan[0].mac.queue packetPopped:vector(packetBytes) ETV
attr interpolationmode none
attr title "packet popped, vector(packetBytes)"
vector 394 AODVnormal.host[16].wlan[0].mac.queue queueingTime:vector ETV
attr interpolationmode none
attr source queueingTime(packetPopped)
attr title "queueing times, vector"
attr unit s
vector 395 AODVnormal.host[16].wlan[0].mac sentDownPk:vector(packetBytes) ETV
attr interpolationmode none
attr source packetSentToLower
attr title "packets sent to lower layer, vector(packetBytes)"
vector 396 AODVnormal.host[11].wlan[0].mac rcvdPkFromLl:vector(packetBytes) ETV
attr interpolationmode none
attr source packetReceivedFromLower
attr title "packets received from lower layer, vector(packetBytes)"
vector 397 AODVnormal.host[11].wlan[0].mac passedUpPk:vector(packetBytes) ETV
attr interpolationmode none
attr source packetSentToUpper
attr title "packets passed to higher layer, vector(packetBytes)"
vector 398 AODVnormal.host[11].udp packetReceived:vector(packetBytes) ETV
attr interpolationmode none
attr source packetReceived
attr title "packets received, vector(packetBytes)"
vector 399 AODVnormal.host[11].udp passedUpPk:vector(count) ETV
attr interpolationmode none
attr source packetSentToUpper
attr title "packets passed up, vector(count)"
vector 400 AODVnormal.host[7].udp packetSent:vector(packetBytes) ETV
attr interpolationmode none
attr source packetSent
attr title "packets sent, vector(packetBytes)"
vector 401 AODVnormal.host[7].wlan[0].mac rcvdPkFromHl:vector(packetBytes) ETV
attr interpolationmode none
attr source packetReceivedFromUpper
attr title "packets received from higher layer, vector(packetBytes)"
vector 402 AODVnormal.host[7].wlan[0].mac.queue packetPushed:vector(packetBytes) ETV
attr interpolationmode none
attr title "packet pushed, vector(packetBytes)"
vector 403 AODVnormal.host[7].wlan[0].mac.queue queueLength:vector ETV
attr interpolationmode sample-hold
attr source "count(packetPushed) - count(packetPopped) - count(packetRemoved) - count(packetDropped)"
attr title "queue length, vector"
vector 404 AODVnormal.host[7].wlan[0].mac.queue packetPopped:vector(packetBytes) ETV
attr interpolationmode none
attr title "packet popped, vector(packetBytes)"
vector 405 AODVnormal.host[7].wlan[0].mac.queue queueingTime:vector ETV
attr interpolationmode none
attr source queueingTime(packetPopped)
attr title "queueing times, vector"
attr unit s
vector 406 AODVnormal.host[7].wlan[0].mac sentDownPk:vector(packetBytes) ETV
attr interpolationmode none
attr source packetSentToLower
attr title "packets sent to lower layer, vector(packetBytes)"
vector 407 AODVnormal.host[18].udp packetSent:vector(packetBytes) ETV
attr interpolationmode none
attr source packetSent
attr title "packets sent, vector(packetBytes)"
vector 408 AODVnormal.host[18].wlan[0].mac rcvdPkFromHl:vector(packetBytes) ETV
attr interpolationmode none
attr source packetReceivedFromUpper
attr title "packets received from higher layer, vector(packetBytes)"
vector 409 AODVnormal.host[18].wlan[0].mac.queue packetPushed:vector(packetBytes) ETV
attr interpolationmode none
attr title "packet pushed, vector(packetBytes)"
vector 410 AODVnormal.host[18].wlan[0].mac.queue queueLength:vector ETV
attr interpolationmode sample-hold
attr source "count(packetPushed) - count(packetPopped) - count(packetRemoved) - count(packetDropped)"
attr title "queue length, vector"
vector 411 AODVnormal.host[18].wlan[0].mac.queue packetPopped:vector(packetBytes) ETV
attr interpolationmode none
attr title "packet popped, vector(packetBytes)"
vector 412 AODVnormal.host[18].wlan[0].mac.queue queueingTime:vector ETV
attr interpolationmode none
attr source queueingTime(packetPopped)
attr title "queueing times, vector"
attr unit s
vector 413 AODVnormal.host[18].wlan[0].mac sentDownPk:vector(packetBytes) ETV
attr interpolationmode none
attr source packetSentToLower
attr title "packets sent to lower layer, vector(packetBytes)"
vector 414 AODVnormal.host[20].udp packetSent:vector(packetBytes) ETV
attr interpolationmode none
attr source packetSent
attr title "packets sent, vector(packetBytes)"
vector 415 AODVnormal.host[20].wlan[0].mac rcvdPkFromHl:vector(packetBytes) ETV
attr interpolationmode none
attr source packetReceivedFromUpper
[...]
371	1269419 1635 3237 282608 0.331371240293 178.455649818911 56 20 36 1784 56992
372	1271054 1626 3237 282608 0.331371240293 178.455649818911 56 1 56 1596 60116
373	1272680 18469 3279 312602 0.331462610542 199.012758063573 584 51 1051 499992 517532168
374	1291149 6714 3279 312406 0.331462610542 199.004252432859 215 28 1028 124048 122826496
375	1297863 2559 3281 285273 0.331462610542 178.575421397944 86 20 36 2716 86320
376	1300422 2550 3281 285273 0.331462610542 178.575421397944 86 1 86 3741 215731
377	1302972 11156 3284 312788 0.33146273178 199.021263314579 358 51 1051 301590 311861182
378	1314128 4577 3284 283580 0.33146273178 178.46027390287 147 28 1028 96128 96291680
379	1318705 1275 3286 283582 0.33146273178 178.46027390287 44 20 36 1364 42768
380	1319980 1266 3286 283582 0.33146273178 178.46027390287 44 1 44 990 29370
381	1321246 18886 3294 312689 0.331462871088 199.017010436778 597 51 1051 509675 527486325
382	1340132 3551 3294 312506 0.331462871088 199.008505248194 117 28 1028 28204 24533968
383	1343683 2407 3296 284328 0.331462871088 178.466119726407 81 20 36 2576 82304
384	1346090 2398 3296 284328 0.331462871088 178.466119726407 81 1 81 3321 180441
385	1348488 17213 3299 312786 0.331462960347 199.021263159427 543 51 1051 469545 486524303
386	1365701 5770 3299 312595 0.331462960347 199.012757842488 187 28 1028 110808 110096096
387	1371471 1990 3301 285268 0.331462960347 178.575421326895 67 20 36 2108 66896
388	1373461 1981 3301 285268 0.331462960347 178.575421326895 67 1 67 2278 102510
389	1375442 415 3338 284173 0.331563823776 178.464408254708 14 28 36 436 13648
390	1375857 3455 3340 284175 0.331563823776 178.464408254708 108 28 1028 94348 96206384
391	1379312 3455 3340 284175 0.331563823776 178.464408254708 108 28 1028 94348 96206384
392	1382767 6329 3340 284175 0.331563823776 178.464408254708 216 0 2 110 112
393	1389096 3454 3340 284175 0.331563823776 178.464408254708 108 28 1028 94348 96206384
394	1392550 3203 3340 284175 0.331563823776 178.464408254708 108 0 0.073299113659 0.150778954925 0.010762987527008
395	1395753 3454 3340 284175 0.331563823776 178.464408254708 108 51 1051 96832 100603524
396	1399207 7668 3403 312777 0.331912645743 199.02126266004 242 51 1051 213046 221116610
397	1406875 2297 3403 284227 0.331912645743 178.464756986605 76 28 1028 52532 52891568
398	1409172 530 3405 284229 0.331912645743 178.464756986605 18 20 36 548 16976
399	1409702 521 3405 284229 0.331912645743 178.464756986605 18 1 18 171 2109
400	1410223 384 3442 281313 0.332476227579 178.452077366038 13 32 32 416 13312
401	1410607 384 3444 281315 0.332476227579 178.452077366038 13 52 52 676 35152
402	1410991 384 3444 281315 0.332476227579 178.452077366038 13 52 52 676 35152
403	1411375 742 3444 281315 0.332476227579 178.452077366038 26 0 1 13 13
404	1412117 384 3444 281315 0.332476227579 178.452077366038 13 52 52 676 35152
405	1412501 371 3444 281315 0.332476227579 178.452077366038 13 0 0 0 0
406	1412872 384 3444 281315 0.332476227579 178.452077366038 13 75 75 975 73125
407	1413256 352 3562 282121 0.332902174022 178.454246072331 12 32 32 384 12288
408	1413608 352 3564 282123 0.332902174022 178.454246072331 12 52 52 624 32448
409	1413960 352 3564 282123 0.332902174022 178.454246072331 12 52 52 624 32448
410	1414312 680 3564 282123 0.332902174022 178.454246072331 24 0 1 12 12
411	1414992 352 3564 282123 0.332902174022 178.454246072331 12 52 52 624 32448
412	1415344 340 3564 282123 0.332902174022 178.454246072331 12 0 0 0 0
413	1415684 352 3564 282123 0.332902174022 178.454246072331 12 75 75 900 67500
414	1416036 448 3674 284905 0.333304078775 178.566835851675 15 28 36 476 15152
415	1416484 1267 3676 312508 0.333304078775 199.008505248194 40 28 1028 24476 24347792
416	1417751 1267 3676 312508 0.333304078775 199.008505248194 40 28 1028 24476 24347792
417	1419018 2361 3676 312508 0.333304078775 199.008505248194 80 0 2 44 48
418	1421379 1266 3676 312508 0.333304078775 199.008505248194 40 28 1028 24476 24347792
419	1422645 1219 3676 312508 0.333304078775 199.008505248194 40 0 0.094554704176 0.197330241194 0.017948754080237
420	1423864 1266 3676 312508 0.333304078775 199.008505248194 40 51 1051 25396 25494848
421	1425130 7065 3750 312784 0.333652875499 199.021263102681 221 51 1051 174387 179238749
422	1432195 1306 3750 283574 0.333652875499 178.460273826864 44 28 56 2148 107888
423	1433501 1123 3752 283576 0.333652875499 178.460273826864 38 32 36 1220 39184
424	1434624 1114 3752 283576 0.333652875499 178.460273826864 38 1 38 741 19019
425	1435738 661 3788 284034 0.334703469925 178.463159393985 22 28 36 696 22112
426	1436399 4614 3790 312408 0.334703469925 199.004252432859 144 28 1028 120552 122650400
427	1441013 4614 3790 312408 0.334703469925 199.004252432859 144 28 1028 120552 122650400
428	1445627 8476 3790 312408 0.334703469925 199.004252432859 288 0 1 144 144
429	1454103 4614 3790 312408 0.334703469925 199.004252432859 144 28 1028 120552 122650400
430	1458717 4248 3790 312408 0.334703469925 199.004252432859 144 0 2.06958e-07 2.06958e-07 4.2831613764e-14
431	1462965 4614 3790 312408 0.334703469925 199.004252432859 144 51 1051 123864 128271968
432	1467579 504 3897 284277 0.335626059561 178.465787154535 17 28 36 528 16480
433	1468083 3959 3899 312597 0.335626059561 199.012757842488 126 28 1028 107920 109953856
434	1472042 3959 3899 312597 0.335626059561 199.012757842488 126 28 1028 107920 109953856
435	1476001 7250 3899 312597 0.335626059561 199.012757842488 252 0 1 126 126
436	1483251 3959 3899 312597 0.335626059561 199.012757842488 126 28 1028 107920 109953856
437	1487210 3633 3899 312597 0.335626059561 199.012757842488 126 0 6.202e-08 6.202e-08 3.8464804e-15
438	1490843 3959 3899 312597 0.335626059561 199.012757842488 126 51 1051 110818 114984830
439	1494802 176 6557 282253 0.813473058241 178.454351979041 6 32 32 192 6144
440	1494978 176 6559 282255 0.813473058241 178.454351979041 6 52 52 312 16224
441	1495154 176 6559 282255 0.813473058241 178.454351979041 6 52 52 312 16224
442	1495330 340 6559 282255 0.813473058241 178.454351979041 12 0 1 6 6
443	1495670 176 6559 282255 0.813473058241 178.454351979041 6 52 52 312 16224
444	1495846 170 6559 282255 0.813473058241 178.454351979041 6 0 0 0 0
445	1496016 176 6559 282255 0.813473058241 178.454351979041 6 75 75 450 33750
446	1496192 177 6601 282165 0.813600657345 178.454294429033 6 32 32 192 6144
447	1496369 177 6603 282167 0.813600657345 178.454294429033 6 52 52 312 16224
448	1496546 177 6603 282167 0.813600657345 178.454294429033 6 52 52 312 16224
449	1496723 342 6603 282167 0.813600657345 178.454294429033 12 0 1 6 6
450	1497065 177 6603 282167 0.813600657345 178.454294429033 6 52 52 312 16224
451	1497242 171 6603 282167 0.813600657345 178.454294429033 6 0 0 0 0
452	1497413 177 6603 282167 0.813600657345 178.454294429033 6 75 75 450 33750
453	1497590 298 6689 281871 0.813640171228 178.453420239962 10 32 32 320 10240
454	1497888 298 6691 281873 0.813640171228 178.453420239962 10 52 52 520 27040
455	1498186 298 6691 281873 0.813640171228 178.453420239962 10 52 52 520 27040
456	1498484 576 6691 281873 0.813640171228 178.453420239962 20 0 1 10 10
457	1499060 298 6691 281873 0.813640171228 178.453420239962 10 52 52 520 27040
458	1499358 288 6691 281873 0.813640171228 178.453420239962 10 0 0 0 0
459	1499646 298 6691 281873 0.813640171228 178.453420239962 10 75 75 750 56250
460	1499944 322 7045 282710 0.814320262865 178.45579864387 11 32 32 352 11264
461	1500266 322 7047 282712 0.814320262865 178.45579864387 11 52 52 572 29744
462	1500588 322 7047 282712 0.814320262865 178.45579864387 11 52 52 572 29744
463	1500910 622 7047 282712 0.814320262865 178.45579864387 22 0 1 11 11
464	1501532 322 7047 282712 0.814320262865 178.45579864387 11 52 52 572 29744
465	1501854 311 7047 282712 0.814320262865 178.45579864387 11 0 0 0 0
466	1502165 322 7047 282712 0.814320262865 178.45579864387 11 75 75 825 61875
467	1502487 631 7105 283329 0.814668861454 178.45936219858 22 75 75 1650 123750
468	1503118 631 7105 283329 0.814668861454 178.45936219858 22 52 52 1144 59488
469	1503749 631 7107 283331 0.814668861454 178.45936219858 22 32 32 704 22528
470	1504380 622 7107 283331 0.814668861454 178.45936219858 22 1 22 253 3795
471	1505002 386 7193 280668 0.815058223162 178.449833633955 13 28 32 412 13072
472	1505388 1593 7195 280670 0.815058223162 178.449833633955 51 28 1028 37736 38080544
473	1506981 1593 7195 280670 0.815058223162 178.449833633955 51 28 1028 37736 38080544
474	1508574 2940 7195 280670 0.815058223162 178.449833633955 102 0 1 51 51
475	1511514 1593 7195 280670 0.815058223162 178.449833633955 51 28 1028 37736 38080544
476	1513107 1470 7195 280670 0.815058223162 178.449833633955 51 0 0 0 0
477	1514577 1593 7195 280670 0.815058223162 178.449833633955 51 51 1051 38909 39843379
478	1516170 143 7302 283845 0.81534495232 178.461261833337 5 32 32 160 5120
479	1516313 143 7304 283847 0.81534495232 178.461261833337 5 52 52 260 13520
480	1516456 143 7304 283847 0.81534495232 178.461261833337 5 52 52 260 13520
481	1516599 276 7304 283847 0.81534495232 178.461261833337 10 0 1 5 5
482	1516875 143 7304 283847 0.81534495232 178.461261833337 5 52 52 260 13520
483	1517018 138 7304 283847 0.81534495232 178.461261833337 5 0 0 0 0
484	1517156 143 7304 283847 0.81534495232 178.461261833337 5 75 75 375 28125
485	1517299 238 7406 282561 0.815500879282 178.455313340472 8 32 32 256 8192
486	1517537 238 7408 282563 0.815500879282 178.455313340472 8 52 52 416 21632
487	1517775 238 7408 282563 0.815500879282 178.455313340472 8 52 52 416 21632
488	1518013 460 7408 282563 0.815500879282 178.455313340472 16 0 1 8 8
489	1518473 238 7408 282563 0.815500879282 178.455313340472 8 52 52 416 21632
490	1518711 230 7408 282563 0.815500879282 178.455313340472 8 0 0 0 0
491	1518941 238 7408 282563 0.815500879282 178.455313340472 8 75 75 600 45000
492	1519179 4092 7456 312685 0.815693448329 199.017010255088 128 51 1051 104236 107315928
493	1523271 804 7456 282963 0.815693448329 178.457022455489 27 28 56 1384 71520
494	1524075 773 7458 282664 0.815693448329 178.455661730111 26 32 36 836 26896
495	1524848 764 7458 282664 0.815693448329 178.455661730111 26 1 26 351 6201
496	1525612 410 7461 283935 0.815693474525 178.461610603318 14 75 75 1050 78750
497	1526022 410 7461 283935 0.815693474525 178.461610603318 14 52 52 728 37856
498	1526432 410 7463 283937 0.815693474525 178.461610603318 14 32 32 448 14336
499	1526842 401 7463 283937 0.815693474525 178.461610603318 14 1 14 105 1015
500	1527243 268 7667 282209 0.816910355993 178.454331327064 9 32 32 288 9216
501	1527511 268 7669 282211 0.816910355993 178.454331327064 9 52 52 468 24336
502	1527779 268 7669 282211 0.816910355993 178.454331327064 9 52 52 468 24336
503	1528047 518 7669 282211 0.816910355993 178.454331327064 18 0 1 9 9
504	1528565 268 7669 282211 0.816910355993 178.454331327064 9 52 52 468 24336
505	1528833 259 7669 282211 0.816910355993 178.454331327064 9 0 0 0 0
506	1529092 268 7669 282211 0.816910355993 178.454331327064 9 75 75 675 50625
507	1529360 174 7988 283420 0.818225529317 178.459925170994 6 28 32 184 5664
508	1529534 1763 7990 283422 0.818225529317 178.459925170994 58 28 1028 51760 52856192
509	1531297 1763 7990 283422 0.818225529317 178.459925170994 58 28 1028 51760 52856192
510	1533060 3210 7990 283422 0.818225529317 178.459925170994 116 0 1 58 58
511	1536270 1763 7990 283422 0.818225529317 178.459925170994 58 28 1028 51760 52856192
512	1538033 1605 7990 283422 0.818225529317 178.459925170994 58 0 0 0 0
513	1539638 1763 7990 283422 0.818225529317 178.459925170994 58 51 1051 53094 55267834
514	1541401 7772 8033 312779 0.818573781511 199.021262800486 244 51 1051 225012 234329636
515	1549173 6879 8033 312779 0.818573781511 199.021262800486 216 28 1028 200416 205063008
516	1556052 6673 8035 312781 0.818573781511 199.021262800486 209 32 1008 196040 197132320
517	1562725 6386 8035 312781 0.818573781511 199.021262800486 209 1 209 21945 3064985
518	1569111 328 8037 283569 0.818573781511 178.460273508162 11 20 28 292 7856
519	1569439 117 8038 232782 0.818573781511 146.330897348875 4 28 28 112 3136
520	1569556 447 8039 283571 0.818573781511 178.460273508162 15 28 48 624 27072
521	1570003 447 8039 283571 0.818573781511 178.460273508162 15 28 48 624 27072
522	1570450 863 8039 283571 0.818573781511 178.460273508162 30 0 1 15 15
523	1571313 446 8039 283571 0.818573781511 178.460273508162 15 28 48 624 27072
524	1571759 444 8039 283571 0.818573781511 178.460273508162 15 0 0.000332738089 0.000332738089 1.1071463587137e-07
525	1572203 446 8039 283571 0.818573781511 178.460273508162 15 51 71 969 63711
526	1572649 27 8130 8130 0.818826033705 0.818826033705 1 28 28 28 784
527	1572676 11443 8220 312786 0.819078768031 199.021263159427 356 51 1051 354436 371232116
528	1584119 6579 8222 312788 0.819078856754 199.021263314579 211 51 1051 202081 211069851
529	1590698 27 8356 8356 0.822498715595 0.822498715595 1 28 28 28 784
530	1590725 58 8404 233203 0.822751449931 146.335374297575 2 28 28 56 1568
531	1590783 15335 8487 312689 0.823003715785 199.017010436778 480 51 1051 478780 501593080
532	1606118 11755 8489 312602 0.823003803253 199.012758063573 369 51 1051 370999 388885729
533	1617873 8398 8493 284335 0.823004147634 178.466119788352 264 51 1051 262684 275111504
534	1626271 11215 8500 312592 0.823004206552 199.012757769969 353 51 1051 347283 363510313
535	1637486 8188 8502 312697 0.823004259055 199.017010525851 255 51 1051 251205 262963655
536	1645674 893 8576 283983 0.823336436454 178.461844323307 28 71 1051 19628 19933228
537	1646567 89 8627 282905 0.824085292925 178.456769846203 3 28 28 84 2352
538	1646656 89 8681 232873 0.824337990618 146.331150086692 3 28 28 84 2352
539	1646745 3740 8770 185896 0.824590583265 115.008505328617 119 51 1051 120089 125939959
540	1650485 14027 8779 312683 0.824590698595 199.017010238446 438 51 1051 438578 459600518
541	1664512 5371 8867 312777 0.824923422652 199.02126266004 166 51 1051 158766 165768366
542	1669883 117 8912 233158 0.82798386461 146.335121878861 4 28 28 112 3136
543	1670000 86 8965 101684 0.828236457279 53.820164291571 3 28 28 84 2352
544	1670086 6894 9060 312600 0.828489088326 199.012758058011 219 51 1051 213349 223195579
545	1676980 4446 9062 147283 0.828489198431 87.012758389249 143 51 1051 142373 149151703
546	1681426 7249 9064 312495 0.828489214876 199.008504865712 226 51 1051 230526 241925826
547	1688675 13959 9066 312499 0.828489258398 199.008504980404 437 51 1051 440447 461792157
548	1702634 5778 9068 312414 0.828489268355 199.004252668505 182 51 1051 186302 195529822
549	1708412 27 9196 9196 0.829933249549 0.829933249549 1 28 28 28 784
550	1708439 88 9253 192224 0.830186007129 116.340239654406 3 28 28 84 2352
551	1708527 1159 9337 65298 0.830438639202 36.004252823472 38 51 1051 38938 40872838
552	1709686 667 9339 35284 0.830438679386 20.004252827179 22 51 1051 22122 23199222
553	1710353 510 9346 28584 0.830438768914 15.004252824935 17 51 1051 16867 17676217
554	1710863 2395 9350 136610 0.830438807745 79.004252832411 77 51 1051 79927 83952277
555	1713258 6223 9888 312782 0.852034556678 199.021262800486 194 1000 1000 194000 194000000
556	1719481 36764 9888 313677 0.1 200 2000 0 160000 15520000 1267200000000
557	1756245 8142 9888 312782 0.852034556678 199.021262800486 194 0.017010020606 1.919885190518 11.467176369795 9.288797445592
558	1764387 5922 9888 312782 0.852034556678 199.021262800486 194 0 199 19299 2570453
559	1770309 7200 11486 312497 2.004252832236 199.008504924063 224 51 1051 231444 243025064
560	1777509 1468 18184 312412 7.004252833582 199.004252579117 46 1051 1051 48346 50811646
561	1778977 5049 24781 171144 12.008505517616 103.008505397803 161 51 1051 159311 166832961
562	1784026 179 51536 282517 27.812288056334 178.455301484065 6 32 32 192 6144
563	1784205 179 51538 282519 27.812288056334 178.455301484065 6 52 52 312 16224
564	1784384 179 51538 282519 27.812288056334 178.455301484065 6 52 52 312 16224
565	1784563 346 51538 282519 27.812288056334 178.455301484065 12 0 1 6 6
566	1784909 179 51538 282519 27.812288056334 178.455301484065 6 52 52 312 16224
567	1785088 173 51538 282519 27.812288056334 178.455301484065 6 0 0 0 0
568	1785261 179 51538 282519 27.812288056334 178.455301484065 6 75 75 450 33750
569	1785440 118 51835 283284 27.812776635973 178.459013428578 4 32 32 128 4096
570	1785558 118 51837 283286 27.812776635973 178.459013428578 4 52 52 208 10816
571	1785676 118 51837 283286 27.812776635973 178.459013428578 4 52 52 208 10816
572	1785794 228 51837 283286 27.812776635973 178.459013428578 8 0 1 4 4
573	1786022 118 51837 283286 27.812776635973 178.459013428578 4 52 52 208 10816
574	1786140 114 51837 283286 27.812776635973 178.459013428578 4 0 0 0 0
575	1786254 118 51837 283286 27.812776635973 178.459013428578 4 75 75 300 22500
576	1786372 90 52565 233488 27.820436058323 146.336713054826 3 28 28 84 2352
577	1786462 2042 52657 147270 27.820688855677 87.0127581004 65 51 1051 64355 67395945
578	1788504 59 52792 153768 27.825627313642 89.339669731263 2 28 28 56 1568
579	1788563 1925 68157 168735 38.008505543702 101.008505418003 61 51 1051 62131 65179101
580	1790488 29 100663 100663 53.81196917936 53.81196917936 1 28 28 28 784
581	1790517 61 100966 191601 53.813721631216 116.334817177062 2 28 28 56 1568
582	1790578 92 101020 283475 53.813974340032 178.460027399019 3 28 28 84 2352
583	1790670 5759 101118 312784 53.814227159704 199.021263102681 177 51 1051 171227 179008777
584	1796429 91 101239 192167 53.815178857574 116.339987027286 3 28 28 84 2352
585	1796520 30 101291 101291 53.815431311462 53.815431311462 1 28 28 28 784
586	1796550 30 101612 101612 53.819911474337 53.819911474337 1 28 28 28 784
587	1796580 1207 101776 147181 53.8204171145 87.008505293731 38 51 1051 37958 39773278
588	1797787 3288 114280 312685 62.012758336658 199.017010255088 101 71 1051 102231 107166461
589	1801075 765 116778 147187 64.008505526296 87.008505390847 24 1051 1051 25224 26510424
590	1801840 317 135409 147191 78.00850560798 87.008505617788 10 1051 1051 10510 11046010
591	1802157 462 151747 283175 89.331416811398 178.457595304419 15 75 75 1125 84375
592	1802619 462 151747 283175 89.331416811398 178.457595304419 15 52 52 780 40560
593	1803081 462 151749 283177 89.331416811398 178.457595304419 15 32 32 480 15360
594	1803543 453 151749 283177 89.331416811398 178.457595304419 15 1 15 120 1240
595	1803996 215 231789 283334 146.328713881129 178.459362225018 7 75 75 525 39375
596	1804211 215 231789 283334 146.328713881129 178.459362225018 7 52 52 364 18928
597	1804426 215 231791 283336 146.328713881129 178.459362225018 7 32 32 224 7168
598	1804641 208 231791 283336 146.328713881129 178.459362225018 7 1 7 28 140
599	1804849 62 277317 282755 177.811558721847 178.455978969945 2 32 32 64 2048
600	1804911 62 277319 282757 177.811558721847 178.455978969945 2 52 52 104 5408
601	1804973 62 277319 282757 177.811558721847 178.455978969945 2 52 52 104 5408
602	1805035 120 277319 282757 177.811558721847 178.455978969945 4 0 1 2 2
603	1805155 62 277319 282757 177.811558721847 178.455978969945 2 52 52 104 5408
604	1805217 60 277319 282757 177.811558721847 178.455978969945 2 0 0 0 0
605	1805277 62 277319 282757 177.811558721847 178.455978969945 2 75 75 150 11250
606	1805339 61 277666 283041 177.81252285893 178.457247037891 2 32 32 64 2048
607	1805400 61 277668 283043 177.81252285893 178.457247037891 2 52 52 104 5408
608	1805461 61 277668 283043 177.81252285893 178.457247037891 2 52 52 104 5408
609	1805522 118 277668 283043 177.81252285893 178.457247037891 4 0 1 2 2
610	1805640 61 277668 283043 177.81252285893 178.457247037891 2 52 52 104 5408
611	1805701 59 277668 283043 177.81252285893 178.457247037891 2 0 0 0 0
612	1805760 61 277668 283043 177.81252285893 178.457247037891 2 75 75 150 11250
613	1805821 31 282956 282956 178.457022418076 178.457022418076 1 28 28 28 784
614	1805852 31 283377 283377 178.459774756703 178.459774756703 1 28 28 28 784
615	1805883 36502 313677 313677 0.1 200 2000 0 0 0 0

