version 2
run IPv4ModerateFastMobility-0-20200826-15:59:33-14466
attr configname IPv4ModerateFastMobility
attr datetime 20200826-15:59:33
attr experiment IPv4ModerateFastMobility
attr inifile AODVnormal.ini
attr iterationvars ""
attr iterationvarsf ""
attr measurement ""
attr network AODVnormal
attr processid 14466
attr repetition 0
attr replication #0
attr resultdir results
attr runnumber 0
attr seedset 0
param **.aodv.activeRouteTimeout 3s
param **.host[*].mobility.speed "normal(8mps, 0.01mps)"
param **.aodv.activeRouteTimeout 3s
param **.*.mobility.typename "\"MassMobility\""
param **.*.mobility.changeInterval "normal(5s, 0.1s)"
param **.*.mobility.angleDelta "normal(0deg, 30deg)"
param **.*.mobility.speed "normal(2mps, 0.01mps)"
param *.host[*].wlan[*].radio.transmitter.communicationRange 250m
param *.sender.wlan[*].radio.transmitter.communicationRange 250m
param *.receiver.wlan[*].radio.transmitter.communicationRange 250m
param **.wlan[*].typename "\"AckingWirelessInterface\""
param **.wlan[*].bitrate 2Mbps
param **.wlan[*].mac.headerLength 23B
param **.wlan[*].radio.typename "\"UnitDiskRadio\""
param **.wlan[*].radio.transmitter.headerLength 96b
param **.wlan[*].radio.transmitter.communicationRange 250m
param **.wlan[*].radio.transmitter.interferenceRange 0m
param **.wlan[*].radio.transmitter.detectionRange 0m
param **.wlan[*].radio.receiver.ignoreInterference true
param *.numHosts 38
param **.host[*].mobility.typename "\"StationaryMobility\""
param **.mobility.constraintAreaMinZ 0m
param **.mobility.constraintAreaMaxZ 0m
param **.mobility.constraintAreaMinX 5m
param **.mobility.constraintAreaMinY 5m
param **.mobility.constraintAreaMaxX 995m
param **.mobility.constraintAreaMaxY 995m
param *.visualizer.dataLinkVisualizer.displayLinks true
param *.visualizer.networkRouteVisualizer.displayRoutes true
param *.visualizer.networkRouteVisualizer.lineShift 0
param *.visualizer.networkRouteVisualizer.packetFilter "\"UDPData*\""
param *.sender.numApps 1
param *.sender.app[0].typename "\"UdpBasicApp\""
param *.sender.app[0].destAddresses "\"receiver\""
param *.sender.app[0].destPort 1000
param *.sender.app[0].sendInterval 1s
param *.sender.app[0].startTime 0s
param *.sender.app[0].messageLength 1000Byte
param *.sender.app[0].packetName "\"UDPdata\""
param *.receiver.numApps 1
param *.receiver.app[0].typename "\"UdpSink\""
param *.receiver.app[0].localPort 1000
param **.hasStatus true

vector 0 AODVnormal.host[0].wlan[0].radio radioMode:vector ETV
attr interpolationmode sample-hold
attr source radioModeChanged
attr title "Radio mode, vector"
vector 1 AODVnormal.host[1].wlan[0].radio radioMode:vector ETV
attr interpolationmode sample-hold
attr source radioModeChanged
attr title "Radio mode, vector"
vector 2 AODVnormal.host[2].wlan[0].radio radioMode:vector ETV
attr interpolationmode sample-hold
attr source radioModeChanged
attr title "Radio mode, vector"
vector 3 AODVnormal.host[3].wlan[0].radio radioMode:vector ETV
attr interpolationmode sample-hold
attr source radioModeChanged
attr title "Radio mode, vector"
vector 4 AODVnormal.host[4].wlan[0].radio radioMode:vector ETV
attr interpolationmode sample-hold
attr source radioModeChanged
attr title "Radio mode, vector"
vector 5 AODVnormal.host[5].wlan[0].radio radioMode:vector ETV
attr interpolationmode sample-hold
attr source radioModeChanged
attr title "Radio mode, vector"
vector 6 AODVnormal.host[6].wlan[0].radio radioMode:vector ETV
attr interpolationmode sample-hold
attr source radioModeChanged
attr title "Radio mode, vector"
vector 7 AODVnormal.host[7].wlan[0].radio radioMode:vector ETV
attr interpolationmode sample-hold
attr source radioModeChanged
attr title "Radio mode, vector"
vector 8 AODVnormal.host[8].wlan[0].radio radioMode:vector ETV
attr interpolationmode sample-hold
attr source radioModeChanged
attr title "Radio mode, vector"
vector 9 AODVnormal.host[9].wlan[0].radio radioMode:vector ETV
attr interpolationmode sample-hold
attr source radioModeChanged
attr title "Radio mode, vector"
vector 10 AODVnormal.host[10].wlan[0].radio radioMode:vector ETV
attr interpolationmode sample-hold
attr source radioModeChanged
attr title "Radio mode, vector"
vector 11 AODVnormal.host[11].wlan[0].radio radioMode:vector ETV
attr interpolationmode sample-hold
attr source radioModeChanged
attr title "Radio mode, vector"
vector 12 AODVnormal.host[12].wlan[0].radio radioMode:vector ETV
attr interpolationmode sample-hold
attr source radioModeChanged
attr title "Radio mode, vector"
vector 13 AODVnormal.host[13].wlan[0].radio radioMode:vector ETV
attr interpolationmode sample-hold
attr source radioModeChanged
attr title "Radio mode, vector"
vector 14 AODVnormal.host[14].wlan[0].radio radioMode:vector ETV
attr interpolationmode sample-hold
attr source radioModeChanged
attr title "Radio mode, vector"
vector 15 AODVnormal.host[15].wlan[0].radio radioMode:vector ETV
attr interpolationmode sample-hold
attr source radioModeChanged
attr title "Radio mode, vector"
vector 16 AODVnormal.host[16].wlan[0].radio radioMode:vector ETV
attr interpolationmode sample-hold
attr source radioModeChanged
attr title "Radio mode, vector"
vector 17 AODVnormal.host[17].wlan[0].radio radioMode:vector ETV
attr interpolationmode sample-hold
attr source radioModeChanged
attr title "Radio mode, vector"
vector 18 AODVnormal.host[18].wlan[0].radio radioMode:vector ETV
attr interpolationmode sample-hold
attr source radioModeChanged
attr title "Radio mode, vector"
vector 19 AODVnormal.host[19].wlan[0].radio radioMode:vector ETV
attr interpolationmode sample-hold
attr source radioModeChanged
attr title "Radio mode, vector"
vector 20 AODVnormal.host[20].wlan[0].radio radioMode:vector ETV
attr interpolationmode sample-hold
attr source radioModeChanged
attr title "Radio mode, vector"
vector 21 AODVnormal.host[21].wlan[0].radio radioMode:vector ETV
attr interpolationmode sample-hold
attr source radioModeChanged
attr title "Radio mode, vector"
vector 22 AODVnormal.host[22].wlan[0].radio radioMode:vector ETV
attr interpolationmode sample-hold
attr source radioModeChanged
attr title "Radio mode, vector"
vector 23 AODVnormal.host[23].wlan[0].radio radioMode:vector ETV
attr interpolationmode sample-hold
attr source radioModeChanged
attr title "Radio mode, vector"
vector 24 AODVnormal.host[24].wlan[0].radio radioMode:vector ETV
attr interpolationmode sample-hold
attr source radioModeChanged
attr title "Radio mode, vector"
vector 25 AODVnormal.host[25].wlan[0].radio radioMode:vector ETV
attr interpolationmode sample-hold
attr source radioModeChanged
attr title "Radio mode, vector"
vector 26 AODVnormal.host[26].wlan[0].radio radioMode:vector ETV
attr interpolationmode sample-hold
attr source radioModeChanged
attr title "Radio mode, vector"
vector 27 AODVnormal.host[27].wlan[0].radio radioMode:vector ETV
attr interpolationmode sample-hold
attr source radioModeChanged
attr title "Radio mode, vector"
vector 28 AODVnormal.host[28].wlan[0].radio radioMode:vector ETV
attr interpolationmode sample-hold
attr source radioModeChanged
attr title "Radio mode, vector"
vector 29 AODVnormal.host[29].wlan[0].radio radioMode:vector ETV
attr interpolationmode sample-hold
attr source radioModeChanged
attr title "Radio mode, vector"
vector 30 AODVnormal.host[30].wlan[0].radio radioMode:vector ETV
attr interpolationmode sample-hold
attr source radioModeChanged
attr title "Radio mode, vector"
vector 31 AODVnormal.host[31].wlan[0].radio radioMode:vector ETV
attr interpolationmode sample-hold
attr source radioModeChanged
attr title "Radio mode, vector"
vector 32 AODVnormal.host[32].wlan[0].radio radioMode:vector ETV
attr interpolationmode sample-hold
attr source radioModeChanged
attr title "Radio mode, vector"
vector 33 AODVnormal.host[33].wlan[0].radio radioMode:vector ETV
attr interpolationmode sample-hold
attr source radioModeChanged
attr title "Radio mode, vector"
vector 34 AODVnormal.host[34].wlan[0].radio radioMode:vector ETV
attr interpolationmode sample-hold
attr source radioModeChanged
attr title "Radio mode, vector"
vector 35 AODVnormal.host[35].wlan[0].radio radioMode:vector ETV
attr interpolationmode sample-hold
attr source radioModeChanged
attr title "Radio mode, vector"
vector 36 AODVnormal.host[36].wlan[0].radio radioMode:vector ETV
attr interpolationmode sample-hold
attr source radioModeChanged
attr title "Radio mode, vector"
vector 37 AODVnormal.host[37].wlan[0].radio radioMode:vector ETV
attr interpolationmode sample-hold
attr source radioModeChanged
attr title "Radio mode, vector"
vector 38 AODVnormal.sender.wlan[0].radio radioMode:vector ETV
attr interpolationmode sample-hold
attr source radioModeChanged
attr title "Radio mode, vector"
vector 39 AODVnormal.receiver.wlan[0].radio radioMode:vector ETV
attr interpolationmode sample-hold
attr source radioModeChanged
attr title "Radio mode, vector"
vector 40 AODVnormal.host[0].wlan[0].radio receptionState:vector ETV
attr interpolationmode sample-hold
attr source receptionStateChanged
attr title "Radio reception state, vector"
vector 41 AODVnormal.host[0].wlan[0].radio transmissionState:vector ETV
attr interpolationmode sample-hold
attr source transmissionStateChanged
attr title "Radio transmission state, vector"
vector 42 AODVnormal.host[1].wlan[0].radio receptionState:vector ETV
attr interpolationmode sample-hold
attr source receptionStateChanged
attr title "Radio reception state, vector"
vector 43 AODVnormal.host[1].wlan[0].radio transmissionState:vector ETV
attr interpolationmode sample-hold
attr source transmissionStateChanged
attr title "Radio transmission state, vector"
vector 44 AODVnormal.host[2].wlan[0].radio receptionState:vector ETV
attr interpolationmode sample-hold
attr source receptionStateChanged
attr title "Radio reception state, vector"
vector 45 AODVnormal.host[2].wlan[0].radio transmissionState:vector ETV
attr interpolationmode sample-hold
attr source transmissionStateChanged
attr title "Radio transmission state, vector"
vector 46 AODVnormal.host[3].wlan[0].radio receptionState:vector ETV
attr interpolationmode sample-hold
attr source receptionStateChanged
attr title "Radio reception state, vector"
vector 47 AODVnormal.host[3].wlan[0].radio transmissionState:vector ETV
attr interpolationmode sample-hold
attr source transmissionStateChanged
attr title "Radio transmission state, vector"
vector 48 AODVnormal.host[4].wlan[0].radio receptionState:vector ETV
attr interpolationmode sample-hold
attr source receptionStateChanged
attr title "Radio reception state, vector"
vector 49 AODVnormal.host[4].wlan[0].radio transmissionState:vector ETV
attr interpolationmode sample-hold
attr source transmissionStateChanged
attr title "Radio transmission state, vector"
vector 50 AODVnormal.host[5].wlan[0].radio receptionState:vector ETV
attr interpolationmode sample-hold
attr source receptionStateChanged
attr title "Radio reception state, vector"
vector 51 AODVnormal.host[5].wlan[0].radio transmissionState:vector ETV
attr interpolationmode sample-hold
attr source transmissionStateChanged
attr title "Radio transmission state, vector"
vector 52 AODVnormal.host[6].wlan[0].radio receptionState:vector ETV
attr interpolationmode sample-hold
attr source receptionStateChanged
attr title "Radio reception state, vector"
vector 53 AODVnormal.host[6].wlan[0].radio transmissionState:vector ETV
attr interpolationmode sample-hold
attr source transmissionStateChanged
attr title "Radio transmission state, vector"
vector 54 AODVnormal.host[7].wlan[0].radio receptionState:vector ETV
attr interpolationmode sample-hold
attr source receptionStateChanged
attr title "Radio reception state, vector"
vector 55 AODVnormal.host[7].wlan[0].radio transmissionState:vector ETV
attr interpolationmode sample-hold
attr source transmissionStateChanged
attr title "Radio transmission state, vector"
vector 56 AODVnormal.host[8].wlan[0].radio receptionState:vector ETV
attr interpolationmode sample-hold
attr source receptionStateChanged
attr title "Radio reception state, vector"
vector 57 AODVnormal.host[8].wlan[0].radio transmissionState:vector ETV
attr interpolationmode sample-hold
attr source transmissionStateChanged
attr title "Radio transmission state, vector"
vector 58 AODVnormal.host[9].wlan[0].radio receptionState:vector ETV
attr interpolationmode sample-hold
attr source receptionStateChanged
attr title "Radio reception state, vector"
vector 59 AODVnormal.host[9].wlan[0].radio transmissionState:vector ETV
attr interpolationmode sample-hold
attr source transmissionStateChanged
attr title "Radio transmission state, vector"
vector 60 AODVnormal.host[10].wlan[0].radio receptionState:vector ETV
attr interpolationmode sample-hold
attr source receptionStateChanged
attr title "Radio reception state, vector"
vector 61 AODVnormal.host[10].wlan[0].radio transmissionState:vector ETV
attr interpolationmode sample-hold
attr source transmissionStateChanged
attr title "Radio transmission state, vector"
vector 62 AODVnormal.host[11].wlan[0].radio receptionState:vector ETV
attr interpolationmode sample-hold
attr source receptionStateChanged
attr title "Radio reception state, vector"
vector 63 AODVnormal.host[11].wlan[0].radio transmissionState:vector ETV
attr interpolationmode sample-hold
attr source transmissionStateChanged
attr title "Radio transmission state, vector"
vector 64 AODVnormal.host[12].wlan[0].radio receptionState:vector ETV
attr interpolationmode sample-hold
attr source receptionStateChanged
attr title "Radio reception state, vector"
vector 65 AODVnormal.host[12].wlan[0].radio transmissionState:vector ETV
attr interpolationmode sample-hold
attr source transmissionStateChanged
attr title "Radio transmission state, vector"
vector 66 AODVnormal.host[13].wlan[0].radio receptionState:vector ETV
attr interpolationmode sample-hold
attr source receptionStateChanged
attr title "Radio reception state, vector"
vector 67 AODVnormal.host[13].wlan[0].radio transmissionState:vector ETV
attr interpolationmode sample-hold
attr source transmissionStateChanged
attr title "Radio transmission state, vector"
vector 68 AODVnormal.host[14].wlan[0].radio receptionState:vector ETV
attr interpolationmode sample-hold
attr source receptionStateChanged
attr title "Radio reception state, vector"
vector 69 AODVnormal.host[14].wlan[0].radio transmissionState:vector ETV
attr interpolationmode sample-hold
attr source transmissionStateChanged
attr title "Radio transmission state, vector"
vector 70 AODVnormal.host[15].wlan[0].radio receptionState:vector ETV
attr interpolationmode sample-hold
attr source receptionStateChanged
attr title "Radio reception state, vector"
vector 71 AODVnormal.host[15].wlan[0].radio transmissionState:vector ETV
attr interpolationmode sample-hold
attr source transmissionStateChanged
attr title "Radio transmission state, vector"
vector 72 AODVnormal.host[16].wlan[0].radio receptionState:vector ETV
attr interpolationmode sample-hold
attr source receptionStateChanged
attr title "Radio reception state, vector"
vector 73 AODVnormal.host[16].wlan[0].radio transmissionState:vector ETV
attr interpolationmode sample-hold
attr source transmissionStateChanged
attr title "Radio transmission state, vector"
vector 74 AODVnormal.host[17].wlan[0].radio receptionState:vector ETV
attr interpolationmode sample-hold
attr source receptionStateChanged
attr title "Radio reception state, vector"
vector 75 AODVnormal.host[17].wlan[0].radio transmissionState:vector ETV
attr interpolationmode sample-hold
attr source transmissionStateChanged
attr title "Radio transmission state, vector"
vector 76 AODVnormal.host[18].wlan[0].radio receptionState:vector ETV
attr interpolationmode sample-hold
attr source receptionStateChanged
attr title "Radio reception state, vector"
vector 77 AODVnormal.host[18].wlan[0].radio transmissionState:vector ETV
attr interpolationmode sample-hold
attr source transmissionStateChanged
attr title "Radio transmission state, vector"
vector 78 AODVnormal.host[19].wlan[0].radio receptionState:vector ETV
attr interpolationmode sample-hold
attr source receptionStateChanged
attr title "Radio reception state, vector"
vector 79 AODVnormal.host[19].wlan[0].radio transmissionState:vector ETV
attr interpolationmode sample-hold
attr source transmissionStateChanged
attr title "Radio transmission state, vector"
vector 80 AODVnormal.host[20].wlan[0].radio receptionState:vector ETV
attr interpolationmode sample-hold
attr source receptionStateChanged
attr title "Radio reception state, vector"
vector 81 AODVnormal.host[20].wlan[0].radio transmissionState:vector ETV
attr interpolationmode sample-hold
attr source transmissionStateChanged
attr title "Radio transmission state, vector"
vector 82 AODVnormal.host[21].wlan[0].radio receptionState:vector ETV
attr interpolationmode sample-hold
attr source receptionStateChanged
attr title "Radio reception state, vector"
vector 83 AODVnormal.host[21].wlan[0].radio transmissionState:vector ETV
attr interpolationmode sample-hold
attr source transmissionStateChanged
attr title "Radio transmission state, vector"
vector 84 AODVnormal.host[22].wlan[0].radio receptionState:vector ETV
attr interpolationmode sample-hold
attr source receptionStateChanged
attr title "Radio reception state, vector"
vector 85 AODVnormal.host[22].wlan[0].radio transmissionState:vector ETV
attr interpolationmode sample-hold
attr source transmissionStateChanged
attr title "Radio transmission state, vector"
vector 86 AODVnormal.host[23].wlan[0].radio receptionState:vector ETV
attr interpolationmode sample-hold
attr source receptionStateChanged
attr title "Radio reception state, vector"
vector 87 AODVnormal.host[23].wlan[0].radio transmissionState:vector ETV
attr interpolationmode sample-hold
attr source transmissionStateChanged
attr title "Radio transmission state, vector"
vector 88 AODVnormal.host[24].wlan[0].radio receptionState:vector ETV
attr interpolationmode sample-hold
attr source receptionStateChanged
attr title "Radio reception state, vector"
vector 89 AODVnormal.host[24].wlan[0].radio transmissionState:vector ETV
attr interpolationmode sample-hold
attr source transmissionStateChanged
attr title "Radio transmission state, vector"
vector 90 AODVnormal.host[25].wlan[0].radio receptionState:vector ETV
attr interpolationmode sample-hold
attr source receptionStateChanged
attr title "Radio reception state, vector"
vector 91 AODVnormal.host[25].wlan[0].radio transmissionState:vector ETV
attr interpolationmode sample-hold
attr source transmissionStateChanged
attr title "Radio transmission state, vector"
vector 92 AODVnormal.host[26].wlan[0].radio receptionState:vector ETV
attr interpolationmode sample-hold
attr source receptionStateChanged
attr title "Radio reception state, vector"
vector 93 AODVnormal.host[26].wlan[0].radio transmissionState:vector ETV
attr interpolationmode sample-hold
attr source transmissionStateChanged
attr title "Radio transmission state, vector"
vector 94 AODVnormal.host[27].wlan[0].radio receptionState:vector ETV
attr interpolationmode sample-hold
attr source receptionStateChanged
attr title "Radio reception state, vector"
vector 95 AODVnormal.host[27].wlan[0].radio transmissionState:vector ETV
attr interpolationmode sample-hold
attr source transmissionStateChanged
attr title "Radio transmission state, vector"
vector 96 AODVnormal.host[28].wlan[0].radio receptionState:vector ETV
attr interpolationmode sample-hold
attr source receptionStateChanged
attr title "Radio reception state, vector"
vector 97 AODVnormal.host[28].wlan[0].radio transmissionState:vector ETV
attr interpolationmode sample-hold
attr source transmissionStateChanged
attr title "Radio transmission state, vector"
vector 98 AODVnormal.host[29].wlan[0].radio receptionState:vector ETV
attr interpolationmode sample-hold
attr source receptionStateChanged
attr title "Radio reception state, vector"
vector 99 AODVnormal.host[29].wlan[0].radio transmissionState:vector ETV
attr interpolationmode sample-hold
attr source transmissionStateChanged
attr title "Radio transmission state, vector"
vector 100 AODVnormal.host[30].wlan[0].radio receptionState:vector ETV
attr interpolationmode sample-hold
attr source receptionStateChanged
attr title "Radio reception state, vector"
vector 101 AODVnormal.host[30].wlan[0].radio transmissionState:vector ETV
attr interpolationmode sample-hold
attr source transmissionStateChanged
attr title "Radio transmission state, vector"
vector 102 AODVnormal.host[31].wlan[0].radio receptionState:vector ETV
attr interpolationmode sample-hold
attr source receptionStateChanged
attr title "Radio reception state, vector"
vector 103 AODVnormal.host[31].wlan[0].radio transmissionState:vector ETV
attr interpolationmode sample-hold
attr source transmissionStateChanged
attr title "Radio transmission state, vector"
vector 104 AODVnormal.host[32].wlan[0].radio receptionState:vector ETV
attr interpolationmode sample-hold
attr source receptionStateChanged
attr title "Radio reception state, vector"
vector 105 AODVnormal.host[32].wlan[0].radio transmissionState:vector ETV
attr interpolationmode sample-hold
attr source transmissionStateChanged
attr title "Radio transmission state, vector"
vector 106 AODVnormal.host[33].wlan[0].radio receptionState:vector ETV
attr interpolationmode sample-hold
attr source receptionStateChanged
attr title "Radio reception state, vector"
vector 107 AODVnormal.host[33].wlan[0].radio transmissionState:vector ETV
attr interpolationmode sample-hold
attr source transmissionStateChanged
attr title "Radio transmission state, vector"
vector 108 AODVnormal.host[34].wlan[0].radio receptionState:vector ETV
attr interpolationmode sample-hold
attr source receptionStateChanged
attr title "Radio reception state, vector"
vector 109 AODVnormal.host[34].wlan[0].radio transmissionState:vector ETV
attr interpolationmode sample-hold
attr source transmissionStateChanged
attr title "Radio transmission state, vector"
vector 110 AODVnormal.host[35].wlan[0].radio receptionState:vector ETV
attr interpolationmode sample-hold
attr source receptionStateChanged
attr title "Radio reception state, vector"
vector 111 AODVnormal.host[35].wlan[0].radio transmissionState:vector ETV
attr interpolationmode sample-hold
attr source transmissionStateChanged
attr title "Radio transmission state, vector"
vector 112 AODVnormal.host[36].wlan[0].radio receptionState:vector ETV
attr interpolationmode sample-hold
attr source receptionStateChanged
attr title "Radio reception state, vector"
vector 113 AODVnormal.host[36].wlan[0].radio transmissionState:vector ETV
attr interpolationmode sample-hold
attr source transmissionStateChanged
attr title "Radio transmission state, vector"
vector 114 AODVnormal.host[37].wlan[0].radio receptionState:vector ETV
attr interpolationmode sample-hold
attr source receptionStateChanged
attr title "Radio reception state, vector"
vector 115 AODVnormal.host[37].wlan[0].radio transmissionState:vector ETV
attr interpolationmode sample-hold
attr source transmissionStateChanged
attr title "Radio transmission state, vector"
vector 116 AODVnormal.sender.wlan[0].radio receptionState:vector ETV
attr interpolationmode sample-hold
attr source receptionStateChanged
attr title "Radio reception state, vector"
vector 117 AODVnormal.sender.wlan[0].radio transmissionState:vector ETV
attr interpolationmode sample-hold
attr source transmissionStateChanged
attr title "Radio transmission state, vector"
vector 118 AODVnormal.receiver.wlan[0].radio receptionState:vector ETV
attr interpolationmode sample-hold
attr source receptionStateChanged
attr title "Radio reception state, vector"
vector 119 AODVnormal.receiver.wlan[0].radio transmissionState:vector ETV
attr interpolationmode sample-hold
attr source transmissionStateChanged
attr title "Radio transmission state, vector"
vector 120 AODVnormal.sender.app[0] packetSent:vector(packetBytes) ETV
attr interpolationmode none
attr source packetSent
attr title "packets sent, vector(packetBytes)"
vector 121 AODVnormal.sender.udp packetSent:vector(packetBytes) ETV
attr interpolationmode none
attr source packetSent
attr title "packets sent, vector(packetBytes)"
vector 122 AODVnormal.sender.wlan[0].mac rcvdPkFromHl:vector(packetBytes) ETV
attr interpolationmode none
attr source packetReceivedFromUpper
attr title "packets received from higher layer, vector(packetBytes)"
vector 123 AODVnormal.sender.wlan[0].mac.queue packetPushed:vector(packetBytes) ETV
attr interpolationmode none
attr title "packet pushed, vector(packetBytes)"
vector 124 AODVnormal.sender.wlan[0].mac.queue queueLength:vector ETV
attr interpolationmode sample-hold
attr source "count(packetPushed) - count(packetPopped) - count(packetRemoved) - count(packetDropped)"
attr title "queue length, vector"
vector 125 AODVnormal.sender.wlan[0].mac.queue packetPopped:vector(packetBytes) ETV
attr interpolationmode none
attr title "packet popped, vector(packetBytes)"
vector 126 AODVnormal.sender.wlan[0].mac.queue queueingTime:vector ETV
attr interpolationmode none
attr source queueingTime(packetPopped)
attr title "queueing times, vector"
attr unit s
vector 127 AODVnormal.sender.wlan[0].mac sentDownPk:vector(packetBytes) ETV
attr interpolationmode none
attr source packetSentToLower
attr title "packets sent to lower layer, vector(packetBytes)"
vector 128 AODVnormal.host[5].wlan[0].mac rcvdPkFromLl:vector(packetBytes) ETV
attr interpolationmode none
attr source packetReceivedFromLower
attr title "packets received from lower layer, vector(packetBytes)"
vector 129 AODVnormal.host[5].wlan[0].mac passedUpPk:vector(packetBytes) ETV
attr interpolationmode none
attr source packetSentToUpper
attr title "packets passed to higher layer, vector(packetBytes)"
vector 130 AODVnormal.host[5].udp packetReceived:vector(packetBytes) ETV
attr interpolationmode none
attr source packetReceived
attr title "packets received, vector(packetBytes)"
vector 131 AODVnormal.host[5].udp passedUpPk:vector(count) ETV
attr interpolationmode none
attr source packetSentToUpper
attr title "packets passed up, vector(count)"
vector 132 AODVnormal.host[35].wlan[0].mac rcvdPkFromLl:vector(packetBytes) ETV
attr interpolationmode none
attr source packetReceivedFromLower
attr title "packets received from lower layer, vector(packetBytes)"
vector 133 AODVnormal.host[35].wlan[0].mac passedUpPk:vector(packetBytes) ETV
attr interpolationmode none
attr source packetSentToUpper
attr title "packets passed to higher layer, vector(packetBytes)"
vector 134 AODVnormal.host[35].udp packetReceived:vector(packetBytes) ETV
attr interpolationmode none
attr source packetReceived
attr title "packets received, vector(packetBytes)"
vector 135 AODVnormal.host[35].udp passedUpPk:vector(count) ETV
attr interpolationmode none
attr source packetSentToUpper
attr title "packets passed up, vector(count)"
vector 136 AODVnormal.host[28].wlan[0].mac rcvdPkFromLl:vector(packetBytes) ETV
attr interpolationmode none
attr source packetReceivedFromLower
attr title "packets received from lower layer, vector(packetBytes)"
vector 137 AODVnormal.host[28].wlan[0].mac passedUpPk:vector(packetBytes) ETV
attr interpolationmode none
attr source packetSentToUpper
attr title "packets passed to higher layer, vector(packetBytes)"
vector 138 AODVnormal.host[28].udp packetReceived:vector(packetBytes) ETV
attr interpolationmode none
attr source packetReceived
attr title "packets received, vector(packetBytes)"
vector 139 AODVnormal.host[28].udp passedUpPk:vector(count) ETV
attr interpolationmode none
attr source packetSentToUpper
attr title "packets passed up, vector(count)"
vector 140 AODVnormal.host[37].wlan[0].mac rcvdPkFromLl:vector(packetBytes) ETV
attr interpolationmode none
attr source packetReceivedFromLower
attr title "packets received from lower layer, vector(packetBytes)"
vector 141 AODVnormal.host[37].wlan[0].mac passedUpPk:vector(packetBytes) ETV
attr interpolationmode none
attr source packetSentToUpper
attr title "packets passed to higher layer, vector(packetBytes)"
vector 142 AODVnormal.host[37].udp packetReceived:vector(packetBytes) ETV
attr interpolationmode none
attr source packetReceived
attr title "packets received, vector(packetBytes)"
vector 143 AODVnormal.host[37].udp passedUpPk:vector(count) ETV
attr interpolationmode none
attr source packetSentToUpper
attr title "packets passed up, vector(count)"
vector 144 AODVnormal.host[2].wlan[0].mac rcvdPkFromLl:vector(packetBytes) ETV
attr interpolationmode none
attr source packetReceivedFromLower
attr title "packets received from lower layer, vector(packetBytes)"
vector 145 AODVnormal.host[2].wlan[0].mac passedUpPk:vector(packetBytes) ETV
attr interpolationmode none
attr source packetSentToUpper
attr title "packets passed to higher layer, vector(packetBytes)"
vector 146 AODVnormal.host[2].udp packetReceived:vector(packetBytes) ETV
attr interpolationmode none
attr source packetReceived
attr title "packets received, vector(packetBytes)"
vector 147 AODVnormal.host[2].udp passedUpPk:vector(count) ETV
attr interpolationmode none
attr source packetSentToUpper
attr title "packets passed up, vector(count)"
vector 148 AODVnormal.host[12].wlan[0].mac rcvdPkFromLl:vector(packetBytes) ETV
attr interpolationmode none
attr source packetReceivedFromLower
attr title "packets received from lower layer, vector(packetBytes)"
vector 149 AODVnormal.host[12].wlan[0].mac passedUpPk:vector(packetBytes) ETV
attr interpolationmode none
attr source packetSentToUpper
attr title "packets passed to higher layer, vector(packetBytes)"
vector 150 AODVnormal.host[12].udp packetReceived:vector(packetBytes) ETV
attr interpolationmode none
attr source packetReceived
attr title "packets received, vector(packetBytes)"
vector 151 AODVnormal.host[12].udp passedUpPk:vector(count) ETV
attr interpolationmode none
attr source packetSentToUpper
attr title "packets passed up, vector(count)"
vector 152 AODVnormal.host[1].wlan[0].mac rcvdPkFromLl:vector(packetBytes) ETV
attr interpolationmode none
attr source packetReceivedFromLower
attr title "packets received from lower layer, vector(packetBytes)"
vector 153 AODVnormal.host[1].wlan[0].mac passedUpPk:vector(packetBytes) ETV
attr interpolationmode none
attr source packetSentToUpper
attr title "packets passed to higher layer, vector(packetBytes)"
vector 154 AODVnormal.host[1].udp packetReceived:vector(packetBytes) ETV
attr interpolationmode none
attr source packetReceived
attr title "packets received, vector(packetBytes)"
vector 155 AODVnormal.host[1].udp passedUpPk:vector(count) ETV
attr interpolationmode none
attr source packetSentToUpper
attr title "packets passed up, vector(count)"
vector 156 AODVnormal.host[1].udp packetSent:vector(packetBytes) ETV
attr interpolationmode none
attr source packetSent
attr title "packets sent, vector(packetBytes)"
vector 157 AODVnormal.host[1].wlan[0].mac rcvdPkFromHl:vector(packetBytes) ETV
attr interpolationmode none
attr source packetReceivedFromUpper
attr title "packets received from higher layer, vector(packetBytes)"
vector 158 AODVnormal.host[1].wlan[0].mac.queue packetPushed:vector(packetBytes) ETV
attr interpolationmode none
attr title "packet pushed, vector(packetBytes)"
vector 159 AODVnormal.host[1].wlan[0].mac.queue queueLength:vector ETV
attr interpolationmode sample-hold
attr source "count(packetPushed) - count(packetPopped) - count(packetRemoved) - count(packetDropped)"
attr title "queue length, vector"
vector 160 AODVnormal.host[1].wlan[0].mac.queue packetPopped:vector(packetBytes) ETV
attr interpolationmode none
attr title "packet popped, vector(packetBytes)"
vector 161 AODVnormal.host[1].wlan[0].mac.queue queueingTime:vector ETV
attr interpolationmode none
attr source queueingTime(packetPopped)
attr title "queueing times, vector"
attr unit s
vector 162 AODVnormal.host[1].wlan[0].mac sentDownPk:vector(packetBytes) ETV
attr interpolationmode none
attr source packetSentToLower
attr title "packets sent to lower layer, vector(packetBytes)"
vector 163 AODVnormal.host[27].wlan[0].mac rcvdPkFromLl:vector(packetBytes) ETV
attr interpolationmode none
attr source packetReceivedFromLower
attr title "packets received from lower layer, vector(packetBytes)"
vector 164 AODVnormal.host[27].wlan[0].mac passedUpPk:vector(packetBytes) ETV
attr interpolationmode none
attr source packetSentToUpper
attr title "packets passed to higher layer, vector(packetBytes)"
vector 165 AODVnormal.host[27].udp packetReceived:vector(packetBytes) ETV
attr interpolationmode none
attr source packetReceived
attr title "packets received, vector(packetBytes)"
vector 166 AODVnormal.host[27].udp passedUpPk:vector(count) ETV
attr interpolationmode none
attr source packetSentToUpper
attr title "packets passed up, vector(count)"
vector 167 AODVnormal.host[10].wlan[0].mac rcvdPkFromLl:vector(packetBytes) ETV
attr interpolationmode none
attr source packetReceivedFromLower
attr title "packets received from lower layer, vector(packetBytes)"
vector 168 AODVnormal.host[10].wlan[0].mac passedUpPk:vector(packetBytes) ETV
attr interpolationmode none
attr source packetSentToUpper
attr title "packets passed to higher layer, vector(packetBytes)"
vector 169 AODVnormal.host[10].udp packetReceived:vector(packetBytes) ETV
attr interpolationmode none
attr source packetReceived
attr title "packets received, vector(packetBytes)"
vector 170 AODVnormal.host[10].udp passedUpPk:vector(count) ETV
attr interpolationmode none
attr source packetSentToUpper
attr title "packets passed up, vector(count)"
vector 171 AODVnormal.host[30].wlan[0].mac rcvdPkFromLl:vector(packetBytes) ETV
attr interpolationmode none
attr source packetReceivedFromLower
attr title "packets received from lower layer, vector(packetBytes)"
vector 172 AODVnormal.host[30].wlan[0].mac passedUpPk:vector(packetBytes) ETV
attr interpolationmode none
attr source packetSentToUpper
attr title "packets passed to higher layer, vector(packetBytes)"
vector 173 AODVnormal.host[30].udp packetReceived:vector(packetBytes) ETV
attr interpolationmode none
attr source packetReceived
attr title "packets received, vector(packetBytes)"
vector 174 AODVnormal.host[30].udp passedUpPk:vector(count) ETV
attr interpolationmode none
attr source packetSentToUpper
attr title "packets passed up, vector(count)"
vector 175 AODVnormal.host[26].wlan[0].mac rcvdPkFromLl:vector(packetBytes) ETV
attr interpolationmode none
attr source packetReceivedFromLower
attr title "packets received from lower layer, vector(packetBytes)"
vector 176 AODVnormal.host[26].wlan[0].mac passedUpPk:vector(packetBytes) ETV
attr interpolationmode none
attr source packetSentToUpper
attr title "packets passed to higher layer, vector(packetBytes)"
vector 177 AODVnormal.host[26].udp packetReceived:vector(packetBytes) ETV
attr interpolationmode none
attr source packetReceived
attr title "packets received, vector(packetBytes)"
vector 178 AODVnormal.host[26].udp passedUpPk:vector(count) ETV
attr interpolationmode none
attr source packetSentToUpper
attr title "packets passed up, vector(count)"
vector 179 AODVnormal.host[3].wlan[0].mac rcvdPkFromLl:vector(packetBytes) ETV
attr interpolationmode none
attr source packetReceivedFromLower
attr title "packets received from lower layer, vector(packetBytes)"
vector 180 AODVnormal.host[3].wlan[0].mac passedUpPk:vector(packetBytes) ETV
attr interpolationmode none
attr source packetSentToUpper
attr title "packets passed to higher layer, vector(packetBytes)"
vector 181 AODVnormal.host[3].udp packetReceived:vector(packetBytes) ETV
attr interpolationmode none
attr source packetReceived
attr title "packets received, vector(packetBytes)"
vector 182 AODVnormal.host[3].udp passedUpPk:vector(count) ETV
attr interpolationmode none
attr source packetSentToUpper
attr title "packets passed up, vector(count)"
vector 183 AODVnormal.host[23].wlan[0].mac rcvdPkFromLl:vector(packetBytes) ETV
attr interpolationmode none
attr source packetReceivedFromLower
attr title "packets received from lower layer, vector(packetBytes)"
vector 184 AODVnormal.host[23].wlan[0].mac passedUpPk:vector(packetBytes) ETV
attr interpolationmode none
attr source packetSentToUpper
attr title "packets passed to higher layer, vector(packetBytes)"
vector 185 AODVnormal.host[23].udp packetReceived:vector(packetBytes) ETV
attr interpolationmode none
attr source packetReceived
attr title "packets received, vector(packetBytes)"
vector 186 AODVnormal.host[23].udp passedUpPk:vector(count) ETV
attr interpolationmode none
attr source packetSentToUpper
attr title "packets passed up, vector(count)"
vector 187 AODVnormal.host[7].wlan[0].mac rcvdPkFromLl:vector(packetBytes) ETV
attr interpolationmode none
attr source packetReceivedFromLower
attr title "packets received from lower layer, vector(packetBytes)"
vector 188 AODVnormal.host[7].wlan[0].mac passedUpPk:vector(packetBytes) ETV
attr interpolationmode none
attr source packetSentToUpper
attr title "packets passed to higher layer, vector(packetBytes)"
vector 189 AODVnormal.host[7].udp packetReceived:vector(packetBytes) ETV
attr interpolationmode none
attr source packetReceived
attr title "packets received, vector(packetBytes)"
vector 190 AODVnormal.host[7].udp passedUpPk:vector(count) ETV
attr interpolationmode none
attr source packetSentToUpper
attr title "packets passed up, vector(count)"
vector 191 AODVnormal.host[36].wlan[0].mac rcvdPkFromLl:vector(packetBytes) ETV
attr interpolationmode none
attr source packetReceivedFromLower
attr title "packets received from lower layer, vector(packetBytes)"
vector 192 AODVnormal.host[36].wlan[0].mac passedUpPk:vector(packetBytes) ETV
attr interpolationmode none
attr source packetSentToUpper
attr title "packets passed to higher layer, vector(packetBytes)"
vector 193 AODVnormal.host[36].udp packetReceived:vector(packetBytes) ETV
attr interpolationmode none
attr source packetReceived
attr title "packets received, vector(packetBytes)"
vector 194 AODVnormal.host[36].udp passedUpPk:vector(count) ETV
attr interpolationmode none
attr source packetSentToUpper
attr title "packets passed up, vector(count)"
vector 195 AODVnormal.sender.wlan[0].mac rcvdPkFromLl:vector(packetBytes) ETV
attr interpolationmode none
attr source packetReceivedFromLower
attr title "packets received from lower layer, vector(packetBytes)"
vector 196 AODVnormal.sender.wlan[0].mac passedUpPk:vector(packetBytes) ETV
attr interpolationmode none
attr source packetSentToUpper
attr title "packets passed to higher layer, vector(packetBytes)"
vector 197 AODVnormal.sender.udp packetReceived:vector(packetBytes) ETV
attr interpolationmode none
attr source packetReceived
attr title "packets received, vector(packetBytes)"
vector 198 AODVnormal.sender.udp passedUpPk:vector(count) ETV
attr interpolationmode none
attr source packetSentToUpper
attr title "packets passed up, vector(count)"
vector 199 AODVnormal.host[2].udp packetSent:vector(packetBytes) ETV
attr interpolationmode none
attr source packetSent
attr title "packets sent, vector(packetBytes)"
vector 200 AODVnormal.host[2].wlan[0].mac rcvdPkFromHl:vector(packetBytes) ETV
attr interpolationmode none
attr source packetReceivedFromUpper
attr title "packets received from higher layer, vector(packetBytes)"
vector 201 AODVnormal.host[2].wlan[0].mac.queue packetPushed:vector(packetBytes) ETV
attr interpolationmode none
attr title "packet pushed, vector(packetBytes)"
vector 202 AODVnormal.host[2].wlan[0].mac.queue queueLength:vector ETV
attr interpolationmode sample-hold
attr source "count(packetPushed) - count(packetPopped) - count(packetRemoved) - count(packetDropped)"
attr title "queue length, vector"
vector 203 AODVnormal.host[2].wlan[0].mac.queue packetPopped:vector(packetBytes) ETV
attr interpolationmode none
attr title "packet popped, vector(packetBytes)"
vector 204 AODVnormal.host[2].wlan[0].mac.queue queueingTime:vector ETV
attr interpolationmode none
attr source queueingTime(packetPopped)
attr title "queueing times, vector"
attr unit s
vector 205 AODVnormal.host[2].wlan[0].mac sentDownPk:vector(packetBytes) ETV
attr interpolationmode none
attr source packetSentToLower
attr title "packets sent to lower layer, vector(packetBytes)"
vector 206 AODVnormal.host[28].udp packetSent:vector(packetBytes) ETV
attr interpolationmode none
attr source packetSent
attr title "packets sent, vector(packetBytes)"
vector 207 AODVnormal.host[28].wlan[0].mac rcvdPkFromHl:vector(packetBytes) ETV
attr interpolationmode none
attr source packetReceivedFromUpper
attr title "packets received from higher layer, vector(packetBytes)"
vector 208 AODVnormal.host[28].wlan[0].mac.queue packetPushed:vector(packetBytes) ETV
attr interpolationmode none
attr title "packet pushed, vector(packetBytes)"
vector 209 AODVnormal.host[28].wlan[0].mac.queue queueLength:vector ETV
attr interpolationmode sample-hold
attr source "count(packetPushed) - count(packetPopped) - count(packetRemoved) - count(packetDropped)"
attr title "queue length, vector"
vector 210 AODVnormal.host[28].wlan[0].mac.queue packetPopped:vector(packetBytes) ETV
attr interpolationmode none
attr title "packet popped, vector(packetBytes)"
vector 211 AODVnormal.host[28].wlan[0].mac.queue queueingTime:vector ETV
attr interpolationmode none
attr source queueingTime(packetPopped)
attr title "queueing times, vector"
attr unit s
vector 212 AODVnormal.host[28].wlan[0].mac sentDownPk:vector(packetBytes) ETV
attr interpolationmode none
attr source packetSentToLower
attr title "packets sent to lower layer, vector(packetBytes)"
vector 213 AODVnormal.host[14].wlan[0].mac rcvdPkFromLl:vector(packetBytes) ETV
attr interpolationmode none
attr source packetReceivedFromLower
attr title "packets received from lower layer, vector(packetBytes)"
vector 214 AODVnormal.host[14].wlan[0].mac passedUpPk:vector(packetBytes) ETV
attr interpolationmode none
attr source packetSentToUpper
attr title "packets passed to higher layer, vector(packetBytes)"
vector 215 AODVnormal.host[14].udp packetReceived:vector(packetBytes) ETV
attr interpolationmode none
attr source packetReceived
attr title "packets received, vector(packetBytes)"
vector 216 AODVnormal.host[14].udp passedUpPk:vector(count) ETV
attr interpolationmode none
attr source packetSentToUpper
attr title "packets passed up, vector(count)"
vector 217 AODVnormal.host[18].wlan[0].mac rcvdPkFromLl:vector(packetBytes) ETV
attr interpolationmode none
attr source packetReceivedFromLower
attr title "packets received from lower layer, vector(packetBytes)"
vector 218 AODVnormal.host[18].wlan[0].mac passedUpPk:vector(packetBytes) ETV
attr interpolationmode none
attr source packetSentToUpper
attr title "packets passed to higher layer, vector(packetBytes)"
vector 219 AODVnormal.host[18].udp packetReceived:vector(packetBytes) ETV
attr interpolationmode none
attr source packetReceived
attr title "packets received, vector(packetBytes)"
vector 220 AODVnormal.host[18].udp passedUpPk:vector(count) ETV
attr interpolationmode none
attr source packetSentToUpper
attr title "packets passed up, vector(count)"
vector 221 AODVnormal.host[0].wlan[0].mac rcvdPkFromLl:vector(packetBytes) ETV
attr interpolationmode none
attr source packetReceivedFromLower
attr title "packets received from lower layer, vector(packetBytes)"
vector 222 AODVnormal.host[0].wlan[0].mac passedUpPk:vector(packetBytes) ETV
attr interpolationmode none
attr source packetSentToUpper
attr title "packets passed to higher layer, vector(packetBytes)"
vector 223 AODVnormal.host[0].udp packetReceived:vector(packetBytes) ETV
attr interpolationmode none
attr source packetReceived
attr title "packets received, vector(packetBytes)"
vector 224 AODVnormal.host[0].udp passedUpPk:vector(count) ETV
attr interpolationmode none
attr source packetSentToUpper
attr title "packets passed up, vector(count)"
vector 225 AODVnormal.host[9].wlan[0].mac rcvdPkFromLl:vector(packetBytes) ETV
attr interpolationmode none
attr source packetReceivedFromLower
attr title "packets received from lower layer, vector(packetBytes)"
vector 226 AODVnormal.host[9].wlan[0].mac passedUpPk:vector(packetBytes) ETV
attr interpolationmode none
attr source packetSentToUpper
attr title "packets passed to higher layer, vector(packetBytes)"
vector 227 AODVnormal.host[9].udp packetReceived:vector(packetBytes) ETV
attr interpolationmode none
attr source packetReceived
attr title "packets received, vector(packetBytes)"
vector 228 AODVnormal.host[9].udp passedUpPk:vector(count) ETV
attr interpolationmode none
attr source packetSentToUpper
attr title "packets passed up, vector(count)"
vector 229 AODVnormal.host[5].udp packetSent:vector(packetBytes) ETV
attr interpolationmode none
attr source packetSent
attr title "packets sent, vector(packetBytes)"
vector 230 AODVnormal.host[5].wlan[0].mac rcvdPkFromHl:vector(packetBytes) ETV
attr interpolationmode none
attr source packetReceivedFromUpper
attr title "packets received from higher layer, vector(packetBytes)"
vector 231 AODVnormal.host[5].wlan[0].mac.queue packetPushed:vector(packetBytes) ETV
attr interpolationmode none
attr title "packet pushed, vector(packetBytes)"
vector 232 AODVnormal.host[5].wlan[0].mac.queue queueLength:vector ETV
attr interpolationmode sample-hold
attr source "count(packetPushed) - count(packetPopped) - count(packetRemoved) - count(packetDropped)"
attr title "queue length, vector"
vector 233 AODVnormal.host[5].wlan[0].mac.queue packetPopped:vector(packetBytes) ETV
attr interpolationmode none
attr title "packet popped, vector(packetBytes)"
vector 234 AODVnormal.host[5].wlan[0].mac.queue queueingTime:vector ETV
attr interpolationmode none
attr source queueingTime(packetPopped)
attr title "queueing times, vector"
attr unit s
vector 235 AODVnormal.host[5].wlan[0].mac sentDownPk:vector(packetBytes) ETV
attr interpolationmode none
attr source packetSentToLower
attr title "packets sent to lower layer, vector(packetBytes)"
vector 236 AODVnormal.host[35].udp packetSent:vector(packetBytes) ETV
attr interpolationmode none
attr source packetSent
attr title "packets sent, vector(packetBytes)"
vector 237 AODVnormal.host[35].wlan[0].mac rcvdPkFromHl:vector(packetBytes) ETV
attr interpolationmode none
attr source packetReceivedFromUpper
attr title "packets received from higher layer, vector(packetBytes)"
vector 238 AODVnormal.host[35].wlan[0].mac.queue packetPushed:vector(packetBytes) ETV
attr interpolationmode none
attr title "packet pushed, vector(packetBytes)"
vector 239 AODVnormal.host[35].wlan[0].mac.queue queueLength:vector ETV
attr interpolationmode sample-hold
attr source "count(packetPushed) - count(packetPopped) - count(packetRemoved) - count(packetDropped)"
attr title "queue length, vector"
vector 240 AODVnormal.host[35].wlan[0].mac.queue packetPopped:vector(packetBytes) ETV
attr interpolationmode none
attr title "packet popped, vector(packetBytes)"
vector 241 AODVnormal.host[35].wlan[0].mac.queue queueingTime:vector ETV
attr interpolationmode none
attr source queueingTime(packetPopped)
attr title "queueing times, vector"
attr unit s
vector 242 AODVnormal.host[35].wlan[0].mac sentDownPk:vector(packetBytes) ETV
attr interpolationmode none
attr source packetSentToLower
attr title "packets sent to lower layer, vector(packetBytes)"
vector 243 AODVnormal.host[12].udp packetSent:vector(packetBytes) ETV
attr interpolationmode none
attr source packetSent
attr title "packets sent, vector(packetBytes)"
vector 244 AODVnormal.host[12].wlan[0].mac rcvdPkFromHl:vector(packetBytes) ETV
attr interpolationmode none
attr source packetReceivedFromUpper
attr title "packets received from higher layer, vector(packetBytes)"
vector 245 AODVnormal.host[12].wlan[0].mac.queue packetPushed:vector(packetBytes) ETV
attr interpolationmode none
attr title "packet pushed, vector(packetBytes)"
vector 246 AODVnormal.host[12].wlan[0].mac.queue queueLength:vector ETV
attr interpolationmode sample-hold
attr source "count(packetPushed) - count(packetPopped) - count(packetRemoved) - count(packetDropped)"
attr title "queue length, vector"
vector 247 AODVnormal.host[12].wlan[0].mac.queue packetPopped:vector(packetBytes) ETV
attr interpolationmode none
attr title "packet popped, vector(packetBytes)"
vector 248 AODVnormal.host[12].wlan[0].mac.queue queueingTime:vector ETV
attr interpolationmode none
attr source queueingTime(packetPopped)
attr title "queueing times, vector"
attr unit s
vector 249 AODVnormal.host[12].wlan[0].mac sentDownPk:vector(packetBytes) ETV
attr interpolationmode none
attr source packetSentToLower
attr title "packets sent to lower layer, vector(packetBytes)"
vector 250 AODVnormal.host[37].udp packetSent:vector(packetBytes) ETV
attr interpolationmode none
attr source packetSent
attr title "packets sent, vector(packetBytes)"
vector 251 AODVnormal.host[37].wlan[0].mac rcvdPkFromHl:vector(packetBytes) ETV
attr interpolationmode none
attr source packetReceivedFromUpper
attr title "packets received from higher layer, vector(packetBytes)"
vector 252 AODVnormal.host[37].wlan[0].mac.queue packetPushed:vector(packetBytes) ETV
attr interpolationmode none
attr title "packet pushed, vector(packetBytes)"
vector 253 AODVnormal.host[37].wlan[0].mac.queue queueLength:vector ETV
attr interpolationmode sample-hold
attr source "count(packetPushed) - count(packetPopped) - count(packetRemoved) - count(packetDropped)"
attr title "queue length, vector"
vector 254 AODVnormal.host[37].wlan[0].mac.queue packetPopped:vector(packetBytes) ETV
attr interpolationmode none
attr title "packet popped, vector(packetBytes)"
vector 255 AODVnormal.host[37].wlan[0].mac.queue queueingTime:vector ETV
attr interpolationmode none
attr source queueingTime(packetPopped)
attr title "queueing times, vector"
attr unit s
vector 256 AODVnormal.host[37].wlan[0].mac sentDownPk:vector(packetBytes) ETV
attr interpolationmode none
attr source packetSentToLower
attr title "packets sent to lower layer, vector(packetBytes)"
vector 257 AODVnormal.host[9].udp packetSent:vector(packetBytes) ETV
attr interpolationmode none
attr source packetSent
attr title "packets sent, vector(packetBytes)"
vector 258 AODVnormal.host[9].wlan[0].mac rcvdPkFromHl:vector(packetBytes) ETV
attr interpolationmode none
attr source packetReceivedFromUpper
attr title "packets received from higher layer, vector(packetBytes)"
vector 259 AODVnormal.host[9].wlan[0].mac.queue packetPushed:vector(packetBytes) ETV
attr interpolationmode none
attr title "packet pushed, vector(packetBytes)"
vector 260 AODVnormal.host[9].wlan[0].mac.queue queueLength:vector ETV
attr interpolationmode sample-hold
attr source "count(packetPushed) - count(packetPopped) - count(packetRemoved) - count(packetDropped)"
attr title "queue length, vector"
vector 261 AODVnormal.host[9].wlan[0].mac.queue packetPopped:vector(packetBytes) ETV
attr interpolationmode none
attr title "packet popped, vector(packetBytes)"
vector 262 AODVnormal.host[9].wlan[0].mac.queue queueingTime:vector ETV
attr interpolationmode none
attr source queueingTime(packetPopped)
attr title "queueing times, vector"
attr unit s
vector 263 AODVnormal.host[9].wlan[0].mac sentDownPk:vector(packetBytes) ETV
attr interpolationmode none
attr source packetSentToLower
attr title "packets sent to lower layer, vector(packetBytes)"
vector 264 AODVnormal.host[0].udp packetSent:vector(packetBytes) ETV
attr interpolationmode none
attr source packetSent
attr title "packets sent, vector(packetBytes)"
vector 265 AODVnormal.host[0].wlan[0].mac rcvdPkFromHl:vector(packetBytes) ETV
attr interpolationmode none
attr source packetReceivedFromUpper
attr title "packets received from higher layer, vector(packetBytes)"
vector 266 AODVnormal.host[0].wlan[0].mac.queue packetPushed:vector(packetBytes) ETV
attr interpolationmode none
attr title "packet pushed, vector(packetBytes)"
vector 267 AODVnormal.host[0].wlan[0].mac.queue queueLength:vector ETV
attr interpolationmode sample-hold
attr source "count(packetPushed) - count(packetPopped) - count(packetRemoved) - count(packetDropped)"
attr title "queue length, vector"
vector 268 AODVnormal.host[0].wlan[0].mac.queue packetPopped:vector(packetBytes) ETV
attr interpolationmode none
attr title "packet popped, vector(packetBytes)"
vector 269 AODVnormal.host[0].wlan[0].mac.queue queueingTime:vector ETV
attr interpolationmode none
attr source queueingTime(packetPopped)
attr title "queueing times, vector"
attr unit s
vector 270 AODVnormal.host[0].wlan[0].mac sentDownPk:vector(packetBytes) ETV
attr interpolationmode none
attr source packetSentToLower
attr title "packets sent to lower layer, vector(packetBytes)"
vector 271 AODVnormal.host[26].udp packetSent:vector(packetBytes) ETV
attr interpolationmode none
attr source packetSent
attr title "packets sent, vector(packetBytes)"
vector 272 AODVnormal.host[26].wlan[0].mac rcvdPkFromHl:vector(packetBytes) ETV
attr interpolationmode none
attr source packetReceivedFromUpper
attr title "packets received from higher layer, vector(packetBytes)"
vector 273 AODVnormal.host[26].wlan[0].mac.queue packetPushed:vector(packetBytes) ETV
attr interpolationmode none
attr title "packet pushed, vector(packetBytes)"
vector 274 AODVnormal.host[26].wlan[0].mac.queue queueLength:vector ETV
attr interpolationmode sample-hold
attr source "count(packetPushed) - count(packetPopped) - count(packetRemoved) - count(packetDropped)"
attr title "queue length, vector"
vector 275 AODVnormal.host[26].wlan[0].mac.queue packetPopped:vector(packetBytes) ETV
attr interpolationmode none
attr title "packet popped, vector(packetBytes)"
vector 276 AODVnormal.host[26].wlan[0].mac.queue queueingTime:vector ETV
attr interpolationmode none
attr source queueingTime(packetPopped)
attr title "queueing times, vector"
attr unit s
vector 277 AODVnormal.host[26].wlan[0].mac sentDownPk:vector(packetBytes) ETV
attr interpolationmode none
attr source packetSentToLower
attr title "packets sent to lower layer, vector(packetBytes)"
vector 278 AODVnormal.host[3].udp packetSent:vector(packetBytes) ETV
attr interpolationmode none
attr source packetSent
attr title "packets sent, vector(packetBytes)"
vector 279 AODVnormal.host[3].wlan[0].mac rcvdPkFromHl:vector(packetBytes) ETV
attr interpolationmode none
attr source packetReceivedFromUpper
attr title "packets received from higher layer, vector(packetBytes)"
vector 280 AODVnormal.host[3].wlan[0].mac.queue packetPushed:vector(packetBytes) ETV
attr interpolationmode none
attr title "packet pushed, vector(packetBytes)"
vector 281 AODVnormal.host[3].wlan[0].mac.queue queueLength:vector ETV
attr interpolationmode sample-hold
attr source "count(packetPushed) - count(packetPopped) - count(packetRemoved) - count(packetDropped)"
attr title "queue length, vector"
vector 282 AODVnormal.host[3].wlan[0].mac.queue packetPopped:vector(packetBytes) ETV
attr interpolationmode none
attr title "packet popped, vector(packetBytes)"
vector 283 AODVnormal.host[3].wlan[0].mac.queue queueingTime:vector ETV
attr interpolationmode none
attr source queueingTime(packetPopped)
attr title "queueing times, vector"
attr unit s
vector 284 AODVnormal.host[3].wlan[0].mac sentDownPk:vector(packetBytes) ETV
attr interpolationmode none
attr source packetSentToLower
attr title "packets sent to lower layer, vector(packetBytes)"
vector 285 AODVnormal.host[24].wlan[0].mac rcvdPkFromLl:vector(packetBytes) ETV
attr interpolationmode none
attr source packetReceivedFromLower
attr title "packets received from lower layer, vector(packetBytes)"
vector 286 AODVnormal.host[24].wlan[0].mac passedUpPk:vector(packetBytes) ETV
attr interpolationmode none
attr source packetSentToUpper
attr title "packets passed to higher layer, vector(packetBytes)"
vector 287 AODVnormal.host[24].udp packetReceived:vector(packetBytes) ETV
attr interpolationmode none
attr source packetReceived
attr title "packets received, vector(packetBytes)"
vector 288 AODVnormal.host[24].udp passedUpPk:vector(count) ETV
attr interpolationmode none
attr source packetSentToUpper
attr title "packets passed up, vector(count)"
vector 289 AODVnormal.host[36].udp packetSent:vector(packetBytes) ETV
attr interpolationmode none
attr source packetSent
attr title "packets sent, vector(packetBytes)"
vector 290 AODVnormal.host[36].wlan[0].mac rcvdPkFromHl:vector(packetBytes) ETV
attr interpolationmode none
attr source packetReceivedFromUpper
attr title "packets received from higher layer, vector(packetBytes)"
vector 291 AODVnormal.host[36].wlan[0].mac.queue packetPushed:vector(packetBytes) ETV
attr interpolationmode none
attr title "packet pushed, vector(packetBytes)"
vector 292 AODVnormal.host[36].wlan[0].mac.queue queueLength:vector ETV
attr interpolationmode sample-hold
attr source "count(packetPushed) - count(packetPopped) - count(packetRemoved) - count(packetDropped)"
attr title "queue length, vector"
vector 293 AODVnormal.host[36].wlan[0].mac.queue packetPopped:vector(packetBytes) ETV
attr interpolationmode none
attr title "packet popped, vector(packetBytes)"
vector 294 AODVnormal.host[36].wlan[0].mac.queue queueingTime:vector ETV
attr interpolationmode none
attr source queueingTime(packetPopped)
attr title "queueing times, vector"
attr unit s
vector 295 AODVnormal.host[36].wlan[0].mac sentDownPk:vector(packetBytes) ETV
attr interpolationmode none
attr source packetSentToLower
attr title "packets sent to lower layer, vector(packetBytes)"
vector 296 AODVnormal.host[22].wlan[0].mac rcvdPkFromLl:vector(packetBytes) ETV
attr interpolationmode none
attr source packetReceivedFromLower
attr title "packets received from lower layer, vector(packetBytes)"
vector 297 AODVnormal.host[22].wlan[0].mac passedUpPk:vector(packetBytes) ETV
attr interpolationmode none
attr source packetSentToUpper
attr title "packets passed to higher layer, vector(packetBytes)"
vector 298 AODVnormal.host[22].udp packetReceived:vector(packetBytes) ETV
attr interpolationmode none
attr source packetReceived
attr title "packets received, vector(packetBytes)"
vector 299 AODVnormal.host[22].udp passedUpPk:vector(count) ETV
attr interpolationmode none
attr source packetSentToUpper
attr title "packets passed up, vector(count)"
vector 300 AODVnormal.host[27].udp packetSent:vector(packetBytes) ETV
attr interpolationmode none
attr source packetSent
attr title "packets sent, vector(packetBytes)"
vector 301 AODVnormal.host[27].wlan[0].mac rcvdPkFromHl:vector(packetBytes) ETV
attr interpolationmode none
attr source packetReceivedFromUpper
attr title "packets received from higher layer, vector(packetBytes)"
vector 302 AODVnormal.host[27].wlan[0].mac.queue packetPushed:vector(packetBytes) ETV
attr interpolationmode none
attr title "packet pushed, vector(packetBytes)"
vector 303 AODVnormal.host[27].wlan[0].mac.queue queueLength:vector ETV
attr interpolationmode sample-hold
attr source "count(packetPushed) - count(packetPopped) - count(packetRemoved) - count(packetDropped)"
attr title "queue length, vector"
vector 304 AODVnormal.host[27].wlan[0].mac.queue packetPopped:vector(packetBytes) ETV
attr interpolationmode none
attr title "packet popped, vector(packetBytes)"
vector 305 AODVnormal.host[27].wlan[0].mac.queue queueingTime:vector ETV
attr interpolationmode none
attr source queueingTime(packetPopped)
attr title "queueing times, vector"
attr unit s
vector 306 AODVnormal.host[27].wlan[0].mac sentDownPk:vector(packetBytes) ETV
attr interpolationmode none
attr source packetSentToLower
attr title "packets sent to lower layer, vector(packetBytes)"
vector 307 AODVnormal.host[30].udp packetSent:vector(packetBytes) ETV
attr interpolationmode none
attr source packetSent
attr title "packets sent, vector(packetBytes)"
vector 308 AODVnormal.host[30].wlan[0].mac rcvdPkFromHl:vector(packetBytes) ETV
attr interpolationmode none
attr source packetReceivedFromUpper
attr title "packets received from higher layer, vector(packetBytes)"
vector 309 AODVnormal.host[30].wlan[0].mac.queue packetPushed:vector(packetBytes) ETV
attr interpolationmode none
attr title "packet pushed, vector(packetBytes)"
vector 310 AODVnormal.host[30].wlan[0].mac.queue queueLength:vector ETV
attr interpolationmode sample-hold
attr source "count(packetPushed) - count(packetPopped) - count(packetRemoved) - count(packetDropped)"
attr title "queue length, vector"
vector 311 AODVnormal.host[30].wlan[0].mac.queue packetPopped:vector(packetBytes) ETV
attr interpolationmode none
attr title "packet popped, vector(packetBytes)"
vector 312 AODVnormal.host[30].wlan[0].mac.queue queueingTime:vector ETV
attr interpolationmode none
attr source queueingTime(packetPopped)
attr title "queueing times, vector"
attr unit s
vector 313 AODVnormal.host[30].wlan[0].mac sentDownPk:vector(packetBytes) ETV
attr interpolationmode none
attr source packetSentToLower
attr title "packets sent to lower layer, vector(packetBytes)"
vector 314 AODVnormal.host[24].udp packetSent:vector(packetBytes) ETV
attr interpolationmode none
attr source packetSent
attr title "packets sent, vector(packetBytes)"
vector 315 AODVnormal.host[24].wlan[0].mac rcvdPkFromHl:vector(packetBytes) ETV
attr interpolationmode none
attr source packetReceivedFromUpper
attr title "packets received from higher layer, vector(packetBytes)"
vector 316 AODVnormal.host[24].wlan[0].mac.queue packetPushed:vector(packetBytes) ETV
attr interpolationmode none
attr title "packet pushed, vector(packetBytes)"
vector 317 AODVnormal.host[24].wlan[0].mac.queue queueLength:vector ETV
attr interpolationmode sample-hold
attr source "count(packetPushed) - count(packetPopped) - count(packetRemoved) - count(packetDropped)"
attr title "queue length, vector"
vector 318 AODVnormal.host[24].wlan[0].mac.queue packetPopped:vector(packetBytes) ETV
attr interpolationmode none
attr title "packet popped, vector(packetBytes)"
vector 319 AODVnormal.host[24].wlan[0].mac.queue queueingTime:vector ETV
attr interpolationmode none
attr source queueingTime(packetPopped)
attr title "queueing times, vector"
attr unit s
vector 320 AODVnormal.host[24].wlan[0].mac sentDownPk:vector(packetBytes) ETV
attr interpolationmode none
attr source packetSentToLower
attr title "packets sent to lower layer, vector(packetBytes)"
vector 321 AODVnormal.host[10].udp packetSent:vector(packetBytes) ETV
attr interpolationmode none
attr source packetSent
attr title "packets sent, vector(packetBytes)"
vector 322 AODVnormal.host[10].wlan[0].mac rcvdPkFromHl:vector(packetBytes) ETV
attr interpolationmode none
attr source packetReceivedFromUpper
attr title "packets received from higher layer, vector(packetBytes)"
vector 323 AODVnormal.host[10].wlan[0].mac.queue packetPushed:vector(packetBytes) ETV
attr interpolationmode none
attr title "packet pushed, vector(packetBytes)"
vector 324 AODVnormal.host[10].wlan[0].mac.queue queueLength:vector ETV
attr interpolationmode sample-hold
attr source "count(packetPushed) - count(packetPopped) - count(packetRemoved) - count(packetDropped)"
attr title "queue length, vector"
vector 325 AODVnormal.host[10].wlan[0].mac.queue packetPopped:vector(packetBytes) ETV
attr interpolationmode none
attr title "packet popped, vector(packetBytes)"
vector 326 AODVnormal.host[10].wlan[0].mac.queue queueingTime:vector ETV
attr interpolationmode none
attr source queueingTime(packetPopped)
attr title "queueing times, vector"
attr unit s
vector 327 AODVnormal.host[10].wlan[0].mac sentDownPk:vector(packetBytes) ETV
attr interpolationmode none
attr source packetSentToLower
attr title "packets sent to lower layer, vector(packetBytes)"
vector 328 AODVnormal.host[6].wlan[0].mac rcvdPkFromLl:vector(packetBytes) ETV
attr interpolationmode none
attr source packetReceivedFromLower
attr title "packets received from lower layer, vector(packetBytes)"
vector 329 AODVnormal.host[6].wlan[0].mac passedUpPk:vector(packetBytes) ETV
attr interpolationmode none
attr source packetSentToUpper
attr title "packets passed to higher layer, vector(packetBytes)"
vector 330 AODVnormal.host[6].udp packetReceived:vector(packetBytes) ETV
attr interpolationmode none
attr source packetReceived
attr title "packets received, vector(packetBytes)"
vector 331 AODVnormal.host[6].udp passedUpPk:vector(count) ETV
attr interpolationmode none
attr source packetSentToUpper
attr title "packets passed up, vector(count)"
vector 332 AODVnormal.host[4].wlan[0].mac rcvdPkFromLl:vector(packetBytes) ETV
attr interpolationmode none
attr source packetReceivedFromLower
attr title "packets received from lower layer, vector(packetBytes)"
vector 333 AODVnormal.host[4].wlan[0].mac passedUpPk:vector(packetBytes) ETV
attr interpolationmode none
attr source packetSentToUpper
attr title "packets passed to higher layer, vector(packetBytes)"
vector 334 AODVnormal.host[4].udp packetReceived:vector(packetBytes) ETV
attr interpolationmode none
attr source packetReceived
attr title "packets received, vector(packetBytes)"
vector 335 AODVnormal.host[4].udp passedUpPk:vector(count) ETV
attr interpolationmode none
attr source packetSentToUpper
attr title "packets passed up, vector(count)"
vector 336 AODVnormal.host[13].wlan[0].mac rcvdPkFromLl:vector(packetBytes) ETV
attr interpolationmode none
attr source packetReceivedFromLower
attr title "packets received from lower layer, vector(packetBytes)"
vector 337 AODVnormal.host[13].wlan[0].mac passedUpPk:vector(packetBytes) ETV
attr interpolationmode none
attr source packetSentToUpper
attr title "packets passed to higher layer, vector(packetBytes)"
vector 338 AODVnormal.host[13].udp packetReceived:vector(packetBytes) ETV
attr interpolationmode none
attr source packetReceived
attr title "packets received, vector(packetBytes)"
vector 339 AODVnormal.host[13].udp passedUpPk:vector(count) ETV
attr interpolationmode none
attr source packetSentToUpper
attr title "packets passed up, vector(count)"
vector 340 AODVnormal.host[23].udp packetSent:vector(packetBytes) ETV
attr interpolationmode none
attr source packetSent
attr title "packets sent, vector(packetBytes)"
vector 341 AODVnormal.host[23].wlan[0].mac rcvdPkFromHl:vector(packetBytes) ETV
attr interpolationmode none
attr source packetReceivedFromUpper
attr title "packets received from higher layer, vector(packetBytes)"
vector 342 AODVnormal.host[23].wlan[0].mac.queue packetPushed:vector(packetBytes) ETV
attr interpolationmode none
attr title "packet pushed, vector(packetBytes)"
vector 343 AODVnormal.host[23].wlan[0].mac.queue queueLength:vector ETV
attr interpolationmode sample-hold
attr source "count(packetPushed) - count(packetPopped) - count(packetRemoved) - count(packetDropped)"
attr title "queue length, vector"
vector 344 AODVnormal.host[23].wlan[0].mac.queue packetPopped:vector(packetBytes) ETV
attr interpolationmode none
attr title "packet popped, vector(packetBytes)"
vector 345 AODVnormal.host[23].wlan[0].mac.queue queueingTime:vector ETV
attr interpolationmode none
attr source queueingTime(packetPopped)
attr title "queueing times, vector"
attr unit s
vector 346 AODVnormal.host[23].wlan[0].mac sentDownPk:vector(packetBytes) ETV
attr interpolationmode none
attr source packetSentToLower
attr title "packets sent to lower layer, vector(packetBytes)"
vector 347 AODVnormal.host[13].udp packetSent:vector(packetBytes) ETV
attr interpolationmode none
attr source packetSent
attr title "packets sent, vector(packetBytes)"
vector 348 AODVnormal.host[13].wlan[0].mac rcvdPkFromHl:vector(packetBytes) ETV
attr interpolationmode none
attr source packetReceivedFromUpper
attr title "packets received from higher layer, vector(packetBytes)"
vector 349 AODVnormal.host[13].wlan[0].mac.queue packetPushed:vector(packetBytes) ETV
attr interpolationmode none
attr title "packet pushed, vector(packetBytes)"
vector 350 AODVnormal.host[13].wlan[0].mac.queue queueLength:vector ETV
attr interpolationmode sample-hold
attr source "count(packetPushed) - count(packetPopped) - count(packetRemoved) - count(packetDropped)"
attr title "queue length, vector"
vector 351 AODVnormal.host[13].wlan[0].mac.queue packetPopped:vector(packetBytes) ETV
attr interpolationmode none
attr title "packet popped, vector(packetBytes)"
vector 352 AODVnormal.host[13].wlan[0].mac.queue queueingTime:vector ETV
attr interpolationmode none
attr source queueingTime(packetPopped)
attr title "queueing times, vector"
attr unit s
vector 353 AODVnormal.host[13].wlan[0].mac sentDownPk:vector(packetBytes) ETV
attr interpolationmode none
attr source packetSentToLower
attr title "packets sent to lower layer, vector(packetBytes)"
vector 354 AODVnormal.host[14].udp packetSent:vector(packetBytes) ETV
attr interpolationmode none
attr source packetSent
attr title "packets sent, vector(packetBytes)"
vector 355 AODVnormal.host[14].wlan[0].mac rcvdPkFromHl:vector(packetBytes) ETV
attr interpolationmode none
attr source packetReceivedFromUpper
attr title "packets received from higher layer, vector(packetBytes)"
vector 356 AODVnormal.host[14].wlan[0].mac.queue packetPushed:vector(packetBytes) ETV
attr interpolationmode none
attr title "packet pushed, vector(packetBytes)"
vector 357 AODVnormal.host[14].wlan[0].mac.queue queueLength:vector ETV
attr interpolationmode sample-hold
attr source "count(packetPushed) - count(packetPopped) - count(packetRemoved) - count(packetDropped)"
attr title "queue length, vector"
vector 358 AODVnormal.host[14].wlan[0].mac.queue packetPopped:vector(packetBytes) ETV
attr interpolationmode none
attr title "packet popped, vector(packetBytes)"
vector 359 AODVnormal.host[14].wlan[0].mac.queue queueingTime:vector ETV
attr interpolationmode none
attr source queueingTime(packetPopped)
attr title "queueing times, vector"
attr unit s
vector 360 AODVnormal.host[14].wlan[0].mac sentDownPk:vector(packetBytes) ETV
attr interpolationmode none
attr source packetSentToLower
attr title "packets sent to lower layer, vector(packetBytes)"
vector 361 AODVnormal.host[32].wlan[0].mac rcvdPkFromLl:vector(packetBytes) ETV
attr interpolationmode none
attr source packetReceivedFromLower
attr title "packets received from lower layer, vector(packetBytes)"
vector 362 AODVnormal.host[32].wlan[0].mac passedUpPk:vector(packetBytes) ETV
attr interpolationmode none
attr source packetSentToUpper
attr title "packets passed to higher layer, vector(packetBytes)"
vector 363 AODVnormal.host[32].udp packetReceived:vector(packetBytes) ETV
attr interpolationmode none
attr source packetReceived
attr title "packets received, vector(packetBytes)"
vector 364 AODVnormal.host[32].udp passedUpPk:vector(count) ETV
attr interpolationmode none
attr source packetSentToUpper
attr title "packets passed up, vector(count)"
vector 365 AODVnormal.host[15].wlan[0].mac rcvdPkFromLl:vector(packetBytes) ETV
attr interpolationmode none
attr source packetReceivedFromLower
attr title "packets received from lower layer, vector(packetBytes)"
vector 366 AODVnormal.host[15].wlan[0].mac passedUpPk:vector(packetBytes) ETV
attr interpolationmode none
attr source packetSentToUpper
attr title "packets passed to higher layer, vector(packetBytes)"
vector 367 AODVnormal.host[15].udp packetReceived:vector(packetBytes) ETV
attr interpolationmode none
attr source packetReceived
attr title "packets received, vector(packetBytes)"
vector 368 AODVnormal.host[15].udp passedUpPk:vector(count) ETV
attr interpolationmode none
attr source packetSentToUpper
attr title "packets passed up, vector(count)"
vector 369 AODVnormal.host[29].wlan[0].mac rcvdPkFromLl:vector(packetBytes) ETV
attr interpolationmode none
attr source packetReceivedFromLower
attr title "packets received from lower layer, vector(packetBytes)"
vector 370 AODVnormal.host[29].wlan[0].mac passedUpPk:vector(packetBytes) ETV
attr interpolationmode none
attr source packetSentToUpper
attr title "packets passed to higher layer, vector(packetBytes)"
vector 371 AODVnormal.host[29].udp packetReceived:vector(packetBytes) ETV
attr interpolationmode none
attr source packetReceived
attr title "packets received, vector(packetBytes)"
vector 372 AODVnormal.host[29].udp passedUpPk:vector(count) ETV
attr interpolationmode none
attr source packetSentToUpper
attr title "packets passed up, vector(count)"
vector 373 AODVnormal.host[8].wlan[0].mac rcvdPkFromLl:vector(packetBytes) ETV
attr interpolationmode none
attr source packetReceivedFromLower
attr title "packets received from lower layer, vector(packetBytes)"
vector 374 AODVnormal.host[8].wlan[0].mac passedUpPk:vector(packetBytes) ETV
attr interpolationmode none
attr source packetSentToUpper
attr title "packets passed to higher layer, vector(packetBytes)"
vector 375 AODVnormal.host[8].udp packetReceived:vector(packetBytes) ETV
attr interpolationmode none
attr source packetReceived
attr title "packets received, vector(packetBytes)"
vector 376 AODVnormal.host[8].udp passedUpPk:vector(count) ETV
attr interpolationmode none
attr source packetSentToUpper
attr title "packets passed up, vector(count)"
vector 377 AODVnormal.host[16].wlan[0].mac rcvdPkFromLl:vector(packetBytes) ETV
attr interpolationmode none
attr source packetReceivedFromLower
attr title "packets received from lower layer, vector(packetBytes)"
vector 378 AODVnormal.host[16].wlan[0].mac passedUpPk:vector(packetBytes) ETV
attr interpolationmode none
attr source packetSentToUpper
attr title "packets passed to higher layer, vector(packetBytes)"
vector 379 AODVnormal.host[16].udp packetReceived:vector(packetBytes) ETV
attr interpolationmode none
attr source packetReceived
attr title "packets received, vector(packetBytes)"
vector 380 AODVnormal.host[16].udp passedUpPk:vector(count) ETV
attr interpolationmode none
attr source packetSentToUpper
attr title "packets passed up, vector(count)"
vector 381 AODVnormal.host[20].wlan[0].mac rcvdPkFromLl:vector(packetBytes) ETV
attr interpolationmode none
attr source packetReceivedFromLower
attr title "packets received from lower layer, vector(packetBytes)"
vector 382 AODVnormal.host[20].wlan[0].mac passedUpPk:vector(packetBytes) ETV
attr interpolationmode none
attr source packetSentToUpper
attr title "packets passed to higher layer, vector(packetBytes)"
vector 383 AODVnormal.host[20].udp packetReceived:vector(packetBytes) ETV
attr interpolationmode none
attr source packetReceived
attr title "packets received, vector(packetBytes)"
vector 384 AODVnormal.host[20].udp passedUpPk:vector(count) ETV
attr interpolationmode none
attr source packetSentToUpper
attr title "packets passed up, vector(count)"
vector 385 AODVnormal.host[33].wlan[0].mac rcvdPkFromLl:vector(packetBytes) ETV
attr interpolationmode none
attr source packetReceivedFromLower
attr title "packets received from lower layer, vector(packetBytes)"
vector 386 AODVnormal.host[33].wlan[0].mac passedUpPk:vector(packetBytes) ETV
attr interpolationmode none
attr source packetSentToUpper
attr title "packets passed to higher layer, vector(packetBytes)"
vector 387 AODVnormal.host[33].udp packetReceived:vector(packetBytes) ETV
attr interpolationmode none
attr source packetReceived
attr title "packets received, vector(packetBytes)"
vector 388 AODVnormal.host[33].udp passedUpPk:vector(count) ETV
attr interpolationmode none
attr source packetSentToUpper
attr title "packets passed up, vector(count)"
vector 389 AODVnormal.host[16].udp packetSent:vector(packetBytes) ETV
attr interpolationmode none
attr source packetSent
attr title "packets sent, vector(packetBytes)"
vector 390 AODVnormal.host[16].wlan[0].mac rcvdPkFromHl:vector(packetBytes) ETV
attr interpolationmode none
attr source packetReceivedFromUpper
attr title "packets received from higher layer, vector(packetBytes)"
vector 391 AODVnormal.host[16].wlan[0].mac.queue packetPushed:vector(packetBytes) ETV
attr interpolationmode none
attr title "packet pushed, vector(packetBytes)"
vector 392 AODVnormal.host[16].wlan[0].mac.queue queueLength:vector ETV
attr interpolationmode sample-hold
attr source "count(packetPushed) - count(packetPopped) - count(packetRemoved) - count(packetDropped)"
attr title "queue length, vector"
vector 393 AODVnormal.host[16].wlan[0].mac.queue packetPopped:vector(packetBytes) ETV
attr interpolationmode none
attr title "packet popped, vector(packetBytes)"
vector 394 AODVnormal.host[16].wlan[0].mac.queue queueingTime:vector ETV
attr interpolationmode none
attr source queueingTime(packetPopped)
attr title "queueing times, vector"
attr unit s
vector 395 AODVnormal.host[16].wlan[0].mac sentDownPk:vector(packetBytes) ETV
attr interpolationmode none
attr source packetSentToLower
attr title "packets sent to lower layer, vector(packetBytes)"
vector 396 AODVnormal.host[11].wlan[0].mac rcvdPkFromLl:vector(packetBytes) ETV
attr interpolationmode none
attr source packetReceivedFromLower
attr title "packets received from lower layer, vector(packetBytes)"
vector 397 AODVnormal.host[11].wlan[0].mac passedUpPk:vector(packetBytes) ETV
attr interpolationmode none
attr source packetSentToUpper
attr title "packets passed to higher layer, vector(packetBytes)"
vector 398 AODVnormal.host[11].udp packetReceived:vector(packetBytes) ETV
attr interpolationmode none
attr source packetReceived
attr title "packets received, vector(packetBytes)"
vector 399 AODVnormal.host[11].udp passedUpPk:vector(count) ETV
attr interpolationmode none
attr source packetSentToUpper
attr title "packets passed up, vector(count)"
vector 400 AODVnormal.host[7].udp packetSent:vector(packetBytes) ETV
attr interpolationmode none
attr source packetSent
attr title "packets sent, vector(packetBytes)"
vector 401 AODVnormal.host[7].wlan[0].mac rcvdPkFromHl:vector(packetBytes) ETV
attr interpolationmode none
attr source packetReceivedFromUpper
attr title "packets received from higher layer, vector(packetBytes)"
vector 402 AODVnormal.host[7].wlan[0].mac.queue packetPushed:vector(packetBytes) ETV
attr interpolationmode none
attr title "packet pushed, vector(packetBytes)"
vector 403 AODVnormal.host[7].wlan[0].mac.queue queueLength:vector ETV
attr interpolationmode sample-hold
attr source "count(packetPushed) - count(packetPopped) - count(packetRemoved) - count(packetDropped)"
attr title "queue length, vector"
vector 404 AODVnormal.host[7].wlan[0].mac.queue packetPopped:vector(packetBytes) ETV
attr interpolationmode none
attr title "packet popped, vector(packetBytes)"
vector 405 AODVnormal.host[7].wlan[0].mac.queue queueingTime:vector ETV
attr interpolationmode none
attr source queueingTime(packetPopped)
attr title "queueing times, vector"
attr unit s
vector 406 AODVnormal.host[7].wlan[0].mac sentDownPk:vector(packetBytes) ETV
attr interpolationmode none
attr source packetSentToLower
attr title "packets sent to lower layer, vector(packetBytes)"
vector 407 AODVnormal.host[18].udp packetSent:vector(packetBytes) ETV
attr interpolationmode none
attr source packetSent
attr title "packets sent, vector(packetBytes)"
vector 408 AODVnormal.host[18].wlan[0].mac rcvdPkFromHl:vector(packetBytes) ETV
attr interpolationmode none
attr source packetReceivedFromUpper
attr title "packets received from higher layer, vector(packetBytes)"
vector 409 AODVnormal.host[18].wlan[0].mac.queue packetPushed:vector(packetBytes) ETV
attr interpolationmode none
attr title "packet pushed, vector(packetBytes)"
vector 410 AODVnormal.host[18].wlan[0].mac.queue queueLength:vector ETV
attr interpolationmode sample-hold
attr source "count(packetPushed) - count(packetPopped) - count(packetRemoved) - count(packetDropped)"
attr title "queue length, vector"
vector 411 AODVnormal.host[18].wlan[0].mac.queue packetPopped:vector(packetBytes) ETV
attr interpolationmode none
attr title "packet popped, vector(packetBytes)"
vector 412 AODVnormal.host[18].wlan[0].mac.queue queueingTime:vector ETV
attr interpolationmode none
attr source queueingTime(packetPopped)
attr title "queueing times, vector"
attr unit s
vector 413 AODVnormal.host[18].wlan[0].mac sentDownPk:vector(packetBytes) ETV
attr interpolationmode none
attr source packetSentToLower
attr title "packets sent to lower layer, vector(packetBytes)"
vector 414 AODVnormal.host[20].udp packetSent:vector(packetBytes) ETV
attr interpolationmode none
attr source packetSent
attr title "packets sent, vector(packetBytes)"
vector 415 AODVnormal.host[20].wlan[0].mac rcvdPkFromHl:vector(packetBytes) ETV
attr interpolationmode none
attr source packetReceivedFromUpper
attr title "packets received from higher layer, vector(packetBytes)"
[...]
615	313677	93.4	0
615	313677	93.5	0
615	313677	93.6	0
615	313677	93.7	0
615	313677	93.8	0
615	313677	93.9	0
615	313677	94	0
615	313677	94.1	0
615	313677	94.2	0
615	313677	94.3	0
615	313677	94.4	0
615	313677	94.5	0
615	313677	94.6	0
615	313677	94.7	0
615	313677	94.8	0
615	313677	94.9	0
615	313677	95	0
615	313677	95.1	0
615	313677	95.2	0
615	313677	95.3	0
615	313677	95.4	0
615	313677	95.5	0
615	313677	95.6	0
615	313677	95.7	0
615	313677	95.8	0
615	313677	95.9	0
615	313677	96	0
615	313677	96.1	0
615	313677	96.2	0
615	313677	96.3	0
615	313677	96.4	0
615	313677	96.5	0
615	313677	96.6	0
615	313677	96.7	0
615	313677	96.8	0
615	313677	96.9	0
615	313677	97	0
615	313677	97.1	0
615	313677	97.2	0
615	313677	97.3	0
615	313677	97.4	0
615	313677	97.5	0
615	313677	97.6	0
615	313677	97.7	0
615	313677	97.8	0
615	313677	97.9	0
615	313677	98	0
615	313677	98.1	0
615	313677	98.2	0
615	313677	98.3	0
615	313677	98.4	0
615	313677	98.5	0
615	313677	98.6	0
615	313677	98.7	0
615	313677	98.8	0
615	313677	98.9	0
615	313677	99	0
615	313677	99.1	0
615	313677	99.2	0
615	313677	99.3	0
615	313677	99.4	0
615	313677	99.5	0
615	313677	99.6	0
615	313677	99.7	0
615	313677	99.8	0
615	313677	99.9	0
615	313677	100	0
615	313677	100.1	0
615	313677	100.2	0
615	313677	100.3	0
615	313677	100.4	0
615	313677	100.5	0
615	313677	100.6	0
615	313677	100.7	0
615	313677	100.8	0
615	313677	100.9	0
615	313677	101	0
615	313677	101.1	0
615	313677	101.2	0
615	313677	101.3	0
615	313677	101.4	0
615	313677	101.5	0
615	313677	101.6	0
615	313677	101.7	0
615	313677	101.8	0
615	313677	101.9	0
615	313677	102	0
615	313677	102.1	0
615	313677	102.2	0
615	313677	102.3	0
615	313677	102.4	0
615	313677	102.5	0
615	313677	102.6	0
615	313677	102.7	0
615	313677	102.8	0
615	313677	102.9	0
615	313677	103	0
615	313677	103.1	0
615	313677	103.2	0
615	313677	103.3	0
615	313677	103.4	0
615	313677	103.5	0
615	313677	103.6	0
615	313677	103.7	0
615	313677	103.8	0
615	313677	103.9	0
615	313677	104	0
615	313677	104.1	0
615	313677	104.2	0
615	313677	104.3	0
615	313677	104.4	0
615	313677	104.5	0
615	313677	104.6	0
615	313677	104.7	0
615	313677	104.8	0
615	313677	104.9	0
615	313677	105	0
615	313677	105.1	0
615	313677	105.2	0
615	313677	105.3	0
615	313677	105.4	0
615	313677	105.5	0
615	313677	105.6	0
615	313677	105.7	0
615	313677	105.8	0
615	313677	105.9	0
615	313677	106	0
615	313677	106.1	0
615	313677	106.2	0
615	313677	106.3	0
615	313677	106.4	0
615	313677	106.5	0
615	313677	106.6	0
615	313677	106.7	0
615	313677	106.8	0
615	313677	106.9	0
615	313677	107	0
615	313677	107.1	0
615	313677	107.2	0
615	313677	107.3	0
615	313677	107.4	0
615	313677	107.5	0
615	313677	107.6	0
615	313677	107.7	0
615	313677	107.8	0
615	313677	107.9	0
615	313677	108	0
615	313677	108.1	0
615	313677	108.2	0
615	313677	108.3	0
615	313677	108.4	0
615	313677	108.5	0
615	313677	108.6	0
615	313677	108.7	0
615	313677	108.8	0
615	313677	108.9	0
615	313677	109	0
615	313677	109.1	0
615	313677	109.2	0
615	313677	109.3	0
615	313677	109.4	0
615	313677	109.5	0
615	313677	109.6	0
615	313677	109.7	0
615	313677	109.8	0
615	313677	109.9	0
615	313677	110	0
615	313677	110.1	0
615	313677	110.2	0
615	313677	110.3	0
615	313677	110.4	0
615	313677	110.5	0
615	313677	110.6	0
615	313677	110.7	0
615	313677	110.8	0
615	313677	110.9	0
615	313677	111	0
615	313677	111.1	0
615	313677	111.2	0
615	313677	111.3	0
615	313677	111.4	0
615	313677	111.5	0
615	313677	111.6	0
615	313677	111.7	0
615	313677	111.8	0
615	313677	111.9	0
615	313677	112	0
615	313677	112.1	0
615	313677	112.2	0
615	313677	112.3	0
615	313677	112.4	0
615	313677	112.5	0
615	313677	112.6	0
615	313677	112.7	0
615	313677	112.8	0
615	313677	112.9	0
615	313677	113	0
615	313677	113.1	0
615	313677	113.2	0
615	313677	113.3	0
615	313677	113.4	0
615	313677	113.5	0
615	313677	113.6	0
615	313677	113.7	0
615	313677	113.8	0
615	313677	113.9	0
615	313677	114	0
615	313677	114.1	0
615	313677	114.2	0
615	313677	114.3	0
615	313677	114.4	0
615	313677	114.5	0
615	313677	114.6	0
615	313677	114.7	0
615	313677	114.8	0
615	313677	114.9	0
615	313677	115	0
615	313677	115.1	0
615	313677	115.2	0
615	313677	115.3	0
615	313677	115.4	0
615	313677	115.5	0
615	313677	115.6	0
615	313677	115.7	0
615	313677	115.8	0
615	313677	115.9	0
615	313677	116	0
615	313677	116.1	0
615	313677	116.2	0
615	313677	116.3	0
615	313677	116.4	0
615	313677	116.5	0
615	313677	116.6	0
615	313677	116.7	0
615	313677	116.8	0
615	313677	116.9	0
615	313677	117	0
615	313677	117.1	0
615	313677	117.2	0
615	313677	117.3	0
615	313677	117.4	0
615	313677	117.5	0
615	313677	117.6	0
615	313677	117.7	0
615	313677	117.8	0
615	313677	117.9	0
615	313677	118	0
615	313677	118.1	0
615	313677	118.2	0
615	313677	118.3	0
615	313677	118.4	0
615	313677	118.5	0
615	313677	118.6	0
615	313677	118.7	0
615	313677	118.8	0
615	313677	118.9	0
615	313677	119	0
615	313677	119.1	0
615	313677	119.2	0
615	313677	119.3	0
615	313677	119.4	0
615	313677	119.5	0
615	313677	119.6	0
615	313677	119.7	0
615	313677	119.8	0
615	313677	119.9	0
615	313677	120	0
615	313677	120.1	0
615	313677	120.2	0
615	313677	120.3	0
615	313677	120.4	0
615	313677	120.5	0
615	313677	120.6	0
615	313677	120.7	0
615	313677	120.8	0
615	313677	120.9	0
615	313677	121	0
615	313677	121.1	0
615	313677	121.2	0
615	313677	121.3	0
615	313677	121.4	0
615	313677	121.5	0
615	313677	121.6	0
615	313677	121.7	0
615	313677	121.8	0
615	313677	121.9	0
615	313677	122	0
615	313677	122.1	0
615	313677	122.2	0
615	313677	122.3	0
615	313677	122.4	0
615	313677	122.5	0
615	313677	122.6	0
615	313677	122.7	0
615	313677	122.8	0
615	313677	122.9	0
615	313677	123	0
615	313677	123.1	0
615	313677	123.2	0
615	313677	123.3	0
615	313677	123.4	0
615	313677	123.5	0
615	313677	123.6	0
615	313677	123.7	0
615	313677	123.8	0
615	313677	123.9	0
615	313677	124	0
615	313677	124.1	0
615	313677	124.2	0
615	313677	124.3	0
615	313677	124.4	0
615	313677	124.5	0
615	313677	124.6	0
615	313677	124.7	0
615	313677	124.8	0
615	313677	124.9	0
615	313677	125	0
615	313677	125.1	0
615	313677	125.2	0
615	313677	125.3	0
615	313677	125.4	0
615	313677	125.5	0
615	313677	125.6	0
615	313677	125.7	0
615	313677	125.8	0
615	313677	125.9	0
615	313677	126	0
615	313677	126.1	0
615	313677	126.2	0
615	313677	126.3	0
615	313677	126.4	0
615	313677	126.5	0
615	313677	126.6	0
615	313677	126.7	0
615	313677	126.8	0
615	313677	126.9	0
615	313677	127	0
615	313677	127.1	0
615	313677	127.2	0
615	313677	127.3	0
615	313677	127.4	0
615	313677	127.5	0
615	313677	127.6	0
615	313677	127.7	0
615	313677	127.8	0
615	313677	127.9	0
615	313677	128	0
615	313677	128.1	0
615	313677	128.2	0
615	313677	128.3	0
615	313677	128.4	0
615	313677	128.5	0
615	313677	128.6	0
615	313677	128.7	0
615	313677	128.8	0
615	313677	128.9	0
615	313677	129	0
615	313677	129.1	0
615	313677	129.2	0
615	313677	129.3	0
615	313677	129.4	0
615	313677	129.5	0
615	313677	129.6	0
615	313677	129.7	0
615	313677	129.8	0
615	313677	129.9	0
615	313677	130	0
615	313677	130.1	0
615	313677	130.2	0
615	313677	130.3	0
615	313677	130.4	0
615	313677	130.5	0
615	313677	130.6	0
615	313677	130.7	0
615	313677	130.8	0
615	313677	130.9	0
615	313677	131	0
615	313677	131.1	0
615	313677	131.2	0
615	313677	131.3	0
615	313677	131.4	0
615	313677	131.5	0
615	313677	131.6	0
615	313677	131.7	0
615	313677	131.8	0
615	313677	131.9	0
615	313677	132	0
615	313677	132.1	0
615	313677	132.2	0
615	313677	132.3	0
615	313677	132.4	0
615	313677	132.5	0
615	313677	132.6	0
615	313677	132.7	0
615	313677	132.8	0
615	313677	132.9	0
615	313677	133	0
615	313677	133.1	0
615	313677	133.2	0
615	313677	133.3	0
615	313677	133.4	0
615	313677	133.5	0
615	313677	133.6	0
615	313677	133.7	0
615	313677	133.8	0
615	313677	133.9	0
615	313677	134	0
615	313677	134.1	0
615	313677	134.2	0
615	313677	134.3	0
615	313677	134.4	0
615	313677	134.5	0
615	313677	134.6	0
615	313677	134.7	0
615	313677	134.8	0
615	313677	134.9	0
615	313677	135	0
615	313677	135.1	0
615	313677	135.2	0
615	313677	135.3	0
615	313677	135.4	0
615	313677	135.5	0
615	313677	135.6	0
615	313677	135.7	0
615	313677	135.8	0
615	313677	135.9	0
615	313677	136	0
615	313677	136.1	0
615	313677	136.2	0
615	313677	136.3	0
615	313677	136.4	0
615	313677	136.5	0
615	313677	136.6	0
615	313677	136.7	0
615	313677	136.8	0
615	313677	136.9	0
615	313677	137	0
615	313677	137.1	0
615	313677	137.2	0
615	313677	137.3	0
615	313677	137.4	0
615	313677	137.5	0
615	313677	137.6	0
615	313677	137.7	0
615	313677	137.8	0
615	313677	137.9	0
615	313677	138	0
615	313677	138.1	0
615	313677	138.2	0
615	313677	138.3	0
615	313677	138.4	0
615	313677	138.5	0
615	313677	138.6	0
615	313677	138.7	0
615	313677	138.8	0
615	313677	138.9	0
615	313677	139	0
615	313677	139.1	0
615	313677	139.2	0
615	313677	139.3	0
615	313677	139.4	0
615	313677	139.5	0
615	313677	139.6	0
615	313677	139.7	0
615	313677	139.8	0
615	313677	139.9	0
615	313677	140	0
615	313677	140.1	0
615	313677	140.2	0
615	313677	140.3	0
615	313677	140.4	0
615	313677	140.5	0
615	313677	140.6	0
615	313677	140.7	0
615	313677	140.8	0
615	313677	140.9	0
615	313677	141	0
615	313677	141.1	0
615	313677	141.2	0
615	313677	141.3	0
615	313677	141.4	0
615	313677	141.5	0
615	313677	141.6	0
615	313677	141.7	0
615	313677	141.8	0
615	313677	141.9	0
615	313677	142	0
615	313677	142.1	0
615	313677	142.2	0
615	313677	142.3	0
615	313677	142.4	0
615	313677	142.5	0
615	313677	142.6	0
615	313677	142.7	0
615	313677	142.8	0
615	313677	142.9	0
615	313677	143	0
615	313677	143.1	0
615	313677	143.2	0
615	313677	143.3	0
615	313677	143.4	0
615	313677	143.5	0
615	313677	143.6	0
615	313677	143.7	0
615	313677	143.8	0
615	313677	143.9	0
615	313677	144	0
615	313677	144.1	0
615	313677	144.2	0
615	313677	144.3	0
615	313677	144.4	0
615	313677	144.5	0
615	313677	144.6	0
615	313677	144.7	0
615	313677	144.8	0
615	313677	144.9	0
615	313677	145	0
615	313677	145.1	0
615	313677	145.2	0
615	313677	145.3	0
615	313677	145.4	0
615	313677	145.5	0
615	313677	145.6	0
615	313677	145.7	0
615	313677	145.8	0
615	313677	145.9	0
615	313677	146	0
615	313677	146.1	0
615	313677	146.2	0
615	313677	146.3	0
615	313677	146.4	0
615	313677	146.5	0
615	313677	146.6	0
615	313677	146.7	0
615	313677	146.8	0
615	313677	146.9	0
615	313677	147	0
615	313677	147.1	0
615	313677	147.2	0
615	313677	147.3	0
615	313677	147.4	0
615	313677	147.5	0
615	313677	147.6	0
615	313677	147.7	0
615	313677	147.8	0
615	313677	147.9	0
615	313677	148	0
615	313677	148.1	0
615	313677	148.2	0
615	313677	148.3	0
615	313677	148.4	0
615	313677	148.5	0
615	313677	148.6	0
615	313677	148.7	0
615	313677	148.8	0
615	313677	148.9	0
615	313677	149	0
615	313677	149.1	0
615	313677	149.2	0
615	313677	149.3	0
615	313677	149.4	0
615	313677	149.5	0
615	313677	149.6	0
615	313677	149.7	0
615	313677	149.8	0
615	313677	149.9	0
615	313677	150	0
615	313677	150.1	0
615	313677	150.2	0
615	313677	150.3	0
615	313677	150.4	0
615	313677	150.5	0
615	313677	150.6	0
615	313677	150.7	0
615	313677	150.8	0
615	313677	150.9	0
615	313677	151	0
615	313677	151.1	0
615	313677	151.2	0
615	313677	151.3	0
615	313677	151.4	0
615	313677	151.5	0
615	313677	151.6	0
615	313677	151.7	0
615	313677	151.8	0
615	313677	151.9	0
615	313677	152	0
615	313677	152.1	0
615	313677	152.2	0
615	313677	152.3	0
615	313677	152.4	0
615	313677	152.5	0
615	313677	152.6	0
615	313677	152.7	0
615	313677	152.8	0
615	313677	152.9	0
615	313677	153	0
615	313677	153.1	0
615	313677	153.2	0
615	313677	153.3	0
615	313677	153.4	0
615	313677	153.5	0
615	313677	153.6	0
615	313677	153.7	0
615	313677	153.8	0
615	313677	153.9	0
615	313677	154	0
615	313677	154.1	0
615	313677	154.2	0
615	313677	154.3	0
615	313677	154.4	0
615	313677	154.5	0
615	313677	154.6	0
615	313677	154.7	0
615	313677	154.8	0
615	313677	154.9	0
615	313677	155	0
615	313677	155.1	0
615	313677	155.2	0
615	313677	155.3	0
615	313677	155.4	0
615	313677	155.5	0
615	313677	155.6	0
615	313677	155.7	0
615	313677	155.8	0
615	313677	155.9	0
615	313677	156	0
615	313677	156.1	0
615	313677	156.2	0
615	313677	156.3	0
615	313677	156.4	0
615	313677	156.5	0
615	313677	156.6	0
615	313677	156.7	0
615	313677	156.8	0
615	313677	156.9	0
615	313677	157	0
615	313677	157.1	0
615	313677	157.2	0
615	313677	157.3	0
615	313677	157.4	0
615	313677	157.5	0
615	313677	157.6	0
615	313677	157.7	0
615	313677	157.8	0
615	313677	157.9	0
615	313677	158	0
615	313677	158.1	0
615	313677	158.2	0
615	313677	158.3	0
615	313677	158.4	0
615	313677	158.5	0
615	313677	158.6	0
615	313677	158.7	0
615	313677	158.8	0
615	313677	158.9	0
615	313677	159	0
615	313677	159.1	0
615	313677	159.2	0
615	313677	159.3	0
615	313677	159.4	0
615	313677	159.5	0
615	313677	159.6	0
615	313677	159.7	0
615	313677	159.8	0
615	313677	159.9	0
615	313677	160	0
615	313677	160.1	0
615	313677	160.2	0
615	313677	160.3	0
615	313677	160.4	0
615	313677	160.5	0
615	313677	160.6	0
615	313677	160.7	0
615	313677	160.8	0
615	313677	160.9	0
615	313677	161	0
615	313677	161.1	0
615	313677	161.2	0
615	313677	161.3	0
615	313677	161.4	0
615	313677	161.5	0
615	313677	161.6	0
615	313677	161.7	0
615	313677	161.8	0
615	313677	161.9	0
615	313677	162	0
615	313677	162.1	0
615	313677	162.2	0
615	313677	162.3	0
615	313677	162.4	0
615	313677	162.5	0
615	313677	162.6	0
615	313677	162.7	0
615	313677	162.8	0
615	313677	162.9	0
615	313677	163	0
615	313677	163.1	0
615	313677	163.2	0
615	313677	163.3	0
615	313677	163.4	0
615	313677	163.5	0
615	313677	163.6	0
615	313677	163.7	0
615	313677	163.8	0
615	313677	163.9	0
615	313677	164	0
615	313677	164.1	0
615	313677	164.2	0
615	313677	164.3	0
615	313677	164.4	0
615	313677	164.5	0
615	313677	164.6	0
615	313677	164.7	0
615	313677	164.8	0
615	313677	164.9	0
615	313677	165	0
615	313677	165.1	0
615	313677	165.2	0
615	313677	165.3	0
615	313677	165.4	0
615	313677	165.5	0
615	313677	165.6	0
615	313677	165.7	0
615	313677	165.8	0
615	313677	165.9	0
615	313677	166	0
615	313677	166.1	0
615	313677	166.2	0
615	313677	166.3	0
615	313677	166.4	0
615	313677	166.5	0
615	313677	166.6	0
615	313677	166.7	0
615	313677	166.8	0
615	313677	166.9	0
615	313677	167	0
615	313677	167.1	0
615	313677	167.2	0
615	313677	167.3	0
615	313677	167.4	0
615	313677	167.5	0
615	313677	167.6	0
615	313677	167.7	0
615	313677	167.8	0
615	313677	167.9	0
615	313677	168	0
615	313677	168.1	0
615	313677	168.2	0
615	313677	168.3	0
615	313677	168.4	0
615	313677	168.5	0
615	313677	168.6	0
615	313677	168.7	0
615	313677	168.8	0
615	313677	168.9	0
615	313677	169	0
615	313677	169.1	0
615	313677	169.2	0
615	313677	169.3	0
615	313677	169.4	0
615	313677	169.5	0
615	313677	169.6	0
615	313677	169.7	0
615	313677	169.8	0
615	313677	169.9	0
615	313677	170	0
615	313677	170.1	0
615	313677	170.2	0
615	313677	170.3	0
615	313677	170.4	0
615	313677	170.5	0
615	313677	170.6	0
615	313677	170.7	0
615	313677	170.8	0
615	313677	170.9	0
615	313677	171	0
615	313677	171.1	0
615	313677	171.2	0
615	313677	171.3	0
615	313677	171.4	0
615	313677	171.5	0
615	313677	171.6	0
615	313677	171.7	0
615	313677	171.8	0
615	313677	171.9	0
615	313677	172	0
615	313677	172.1	0
615	313677	172.2	0
615	313677	172.3	0
615	313677	172.4	0
615	313677	172.5	0
615	313677	172.6	0
615	313677	172.7	0
615	313677	172.8	0
615	313677	172.9	0
615	313677	173	0
615	313677	173.1	0
615	313677	173.2	0
615	313677	173.3	0
615	313677	173.4	0
615	313677	173.5	0
615	313677	173.6	0
615	313677	173.7	0
615	313677	173.8	0
615	313677	173.9	0
615	313677	174	0
615	313677	174.1	0
615	313677	174.2	0
615	313677	174.3	0
615	313677	174.4	0
615	313677	174.5	0
615	313677	174.6	0
615	313677	174.7	0
615	313677	174.8	0
615	313677	174.9	0
615	313677	175	0
615	313677	175.1	0
615	313677	175.2	0
615	313677	175.3	0
615	313677	175.4	0
615	313677	175.5	0
615	313677	175.6	0
615	313677	175.7	0
615	313677	175.8	0
615	313677	175.9	0
615	313677	176	0
615	313677	176.1	0
615	313677	176.2	0
615	313677	176.3	0
615	313677	176.4	0
615	313677	176.5	0
615	313677	176.6	0
615	313677	176.7	0
615	313677	176.8	0
615	313677	176.9	0
615	313677	177	0
615	313677	177.1	0
615	313677	177.2	0
615	313677	177.3	0
615	313677	177.4	0
615	313677	177.5	0
615	313677	177.6	0
615	313677	177.7	0
615	313677	177.8	0
615	313677	177.9	0
615	313677	178	0
615	313677	178.1	0
615	313677	178.2	0
615	313677	178.3	0
615	313677	178.4	0
615	313677	178.5	0
615	313677	178.6	0
615	313677	178.7	0
615	313677	178.8	0
615	313677	178.9	0
615	313677	179	0
615	313677	179.1	0
615	313677	179.2	0
615	313677	179.3	0
615	313677	179.4	0
615	313677	179.5	0
615	313677	179.6	0
615	313677	179.7	0
615	313677	179.8	0
615	313677	179.9	0
615	313677	180	0
615	313677	180.1	0
615	313677	180.2	0
615	313677	180.3	0
615	313677	180.4	0
615	313677	180.5	0
615	313677	180.6	0
615	313677	180.7	0
615	313677	180.8	0
615	313677	180.9	0
615	313677	181	0
615	313677	181.1	0
615	313677	181.2	0
615	313677	181.3	0
615	313677	181.4	0
615	313677	181.5	0
615	313677	181.6	0
615	313677	181.7	0
615	313677	181.8	0
615	313677	181.9	0
615	313677	182	0
615	313677	182.1	0
615	313677	182.2	0
615	313677	182.3	0
615	313677	182.4	0
615	313677	182.5	0
615	313677	182.6	0
615	313677	182.7	0
615	313677	182.8	0
615	313677	182.9	0
615	313677	183	0
615	313677	183.1	0
615	313677	183.2	0
615	313677	183.3	0
615	313677	183.4	0
615	313677	183.5	0
615	313677	183.6	0
615	313677	183.7	0
615	313677	183.8	0
615	313677	183.9	0
615	313677	184	0
615	313677	184.1	0
615	313677	184.2	0
615	313677	184.3	0
615	313677	184.4	0
615	313677	184.5	0
615	313677	184.6	0
615	313677	184.7	0
615	313677	184.8	0
615	313677	184.9	0
615	313677	185	0
615	313677	185.1	0
615	313677	185.2	0
615	313677	185.3	0
615	313677	185.4	0
615	313677	185.5	0
615	313677	185.6	0
615	313677	185.7	0
615	313677	185.8	0
615	313677	185.9	0
615	313677	186	0
615	313677	186.1	0
615	313677	186.2	0
615	313677	186.3	0
615	313677	186.4	0
615	313677	186.5	0
615	313677	186.6	0
615	313677	186.7	0
615	313677	186.8	0
615	313677	186.9	0
615	313677	187	0
615	313677	187.1	0
615	313677	187.2	0
615	313677	187.3	0
615	313677	187.4	0
615	313677	187.5	0
615	313677	187.6	0
615	313677	187.7	0
615	313677	187.8	0
615	313677	187.9	0
615	313677	188	0
615	313677	188.1	0
615	313677	188.2	0
615	313677	188.3	0
615	313677	188.4	0
615	313677	188.5	0
615	313677	188.6	0
615	313677	188.7	0
615	313677	188.8	0
615	313677	188.9	0
615	313677	189	0
615	313677	189.1	0
615	313677	189.2	0
615	313677	189.3	0
615	313677	189.4	0
615	313677	189.5	0
615	313677	189.6	0
615	313677	189.7	0
615	313677	189.8	0
615	313677	189.9	0
615	313677	190	0
615	313677	190.1	0
615	313677	190.2	0
615	313677	190.3	0
615	313677	190.4	0
615	313677	190.5	0
615	313677	190.6	0
615	313677	190.7	0
615	313677	190.8	0
615	313677	190.9	0
615	313677	191	0
615	313677	191.1	0
615	313677	191.2	0
615	313677	191.3	0
615	313677	191.4	0
615	313677	191.5	0
615	313677	191.6	0
615	313677	191.7	0
615	313677	191.8	0
615	313677	191.9	0
615	313677	192	0
615	313677	192.1	0
615	313677	192.2	0
615	313677	192.3	0
615	313677	192.4	0
615	313677	192.5	0
615	313677	192.6	0
615	313677	192.7	0
615	313677	192.8	0
615	313677	192.9	0
615	313677	193	0
615	313677	193.1	0
615	313677	193.2	0
615	313677	193.3	0
615	313677	193.4	0
615	313677	193.5	0
615	313677	193.6	0
615	313677	193.7	0
615	313677	193.8	0
615	313677	193.9	0
615	313677	194	0
615	313677	194.1	0
615	313677	194.2	0
615	313677	194.3	0
615	313677	194.4	0
615	313677	194.5	0
615	313677	194.6	0
615	313677	194.7	0
615	313677	194.8	0
615	313677	194.9	0
615	313677	195	0
615	313677	195.1	0
615	313677	195.2	0
615	313677	195.3	0
615	313677	195.4	0
615	313677	195.5	0
615	313677	195.6	0
615	313677	195.7	0
615	313677	195.8	0
615	313677	195.9	0
615	313677	196	0
615	313677	196.1	0
615	313677	196.2	0
615	313677	196.3	0
615	313677	196.4	0
615	313677	196.5	0
615	313677	196.6	0
615	313677	196.7	0
615	313677	196.8	0
615	313677	196.9	0
615	313677	197	0
615	313677	197.1	0
615	313677	197.2	0
615	313677	197.3	0
615	313677	197.4	0
615	313677	197.5	0
615	313677	197.6	0
615	313677	197.7	0
615	313677	197.8	0
615	313677	197.9	0
615	313677	198	0
615	313677	198.1	0
615	313677	198.2	0
615	313677	198.3	0
615	313677	198.4	0
615	313677	198.5	0
615	313677	198.6	0
615	313677	198.7	0
615	313677	198.8	0
615	313677	198.9	0
615	313677	199	0
615	313677	199.1	0
615	313677	199.2	0
615	313677	199.3	0
615	313677	199.4	0
615	313677	199.5	0
615	313677	199.6	0
615	313677	199.7	0
615	313677	199.8	0
615	313677	199.9	0
615	313677	200	0

