file 262504 1621847236                                          
version 2
run General-0-20210524-16:06:43-4213
attr configname General
attr datetime 20210524-16:06:43
attr experiment General
attr inifile omnetpp.ini
attr iterationvars ""
attr iterationvarsf ""
attr measurement ""
attr network SimpleBlackhole
attr processid 4213
attr repetition 0
attr replication #0
attr resultdir results
attr runnumber 0
attr seedset 0
param **.wlan[*].typename "\"AckingWirelessInterface\""
param **.wlan[*].bitrate 2Mbps
param **.wlan[*].mac.headerLength 23B
param **.wlan[*].radio.typename "\"UnitDiskRadio\""
param **.wlan[*].radio.transmitter.headerLength 96b
param **.wlan[*].radio.transmitter.communicationRange 200m
param **.wlan[*].radio.transmitter.interferenceRange 0m
param **.wlan[*].radio.transmitter.detectionRange 0m
param **.wlan[*].radio.receiver.ignoreInterference true
param **.hasStatus true
param *.visualizer.sceneVisualizer.descriptionFigure "\"title\""
param *.visualizer.transportRouteVisualizer.displayRoutes true
param *.visualizer.transportRouteVisualizer.fadeOutMode "\"simulationTime\""
param *.visualizer.transportRouteVisualizer.fadeOutTime 1.2s
param *.sender.wlan[0].radio.displayCommunicationRange true
param *.receiver.wlan[0].radio.displayCommunicationRange true
param *.sender.numApps 1
param *.sender.app[0].typename "\"UdpBasicApp\""
param *.sender.app[0].destAddresses "\"receiver\""
param *.sender.app[0].destPort 1000
param *.sender.app[0].sendInterval 1s
param *.sender.app[0].startTime 0s
param *.sender.app[0].messageLength 512Byte
param *.sender.app[0].packetName "\"UDPdata\""
param *.receiver.numApps 1
param *.receiver.app[0].typename "\"UdpSink\""
param *.receiver.app[0].localPort 1000

vector 0 SimpleBlackhole.sender.wlan[0].radio radioMode:vector ETV
attr interpolationmode sample-hold
attr source radioModeChanged
attr title "Radio mode, vector"
vector 1 SimpleBlackhole.receiver.wlan[0].radio radioMode:vector ETV
attr interpolationmode sample-hold
attr source radioModeChanged
attr title "Radio mode, vector"
vector 2 SimpleBlackhole.host1.wlan[0].radio radioMode:vector ETV
attr interpolationmode sample-hold
attr source radioModeChanged
attr title "Radio mode, vector"
vector 3 SimpleBlackhole.host2.wlan[0].radio radioMode:vector ETV
attr interpolationmode sample-hold
attr source radioModeChanged
attr title "Radio mode, vector"
vector 4 SimpleBlackhole.bh.wlan[0].radio radioMode:vector ETV
attr interpolationmode sample-hold
attr source radioModeChanged
attr title "Radio mode, vector"
vector 5 SimpleBlackhole.host3.wlan[0].radio radioMode:vector ETV
attr interpolationmode sample-hold
attr source radioModeChanged
attr title "Radio mode, vector"
vector 6 SimpleBlackhole.host4.wlan[0].radio radioMode:vector ETV
attr interpolationmode sample-hold
attr source radioModeChanged
attr title "Radio mode, vector"
vector 7 SimpleBlackhole.bh1.wlan[0].radio radioMode:vector ETV
attr interpolationmode sample-hold
attr source radioModeChanged
attr title "Radio mode, vector"
vector 8 SimpleBlackhole.sender.wlan[0].radio receptionState:vector ETV
attr interpolationmode sample-hold
attr source receptionStateChanged
attr title "Radio reception state, vector"
vector 9 SimpleBlackhole.sender.wlan[0].radio transmissionState:vector ETV
attr interpolationmode sample-hold
attr source transmissionStateChanged
attr title "Radio transmission state, vector"
vector 10 SimpleBlackhole.receiver.wlan[0].radio receptionState:vector ETV
attr interpolationmode sample-hold
attr source receptionStateChanged
attr title "Radio reception state, vector"
vector 11 SimpleBlackhole.receiver.wlan[0].radio transmissionState:vector ETV
attr interpolationmode sample-hold
attr source transmissionStateChanged
attr title "Radio transmission state, vector"
vector 12 SimpleBlackhole.host1.wlan[0].radio receptionState:vector ETV
attr interpolationmode sample-hold
attr source receptionStateChanged
attr title "Radio reception state, vector"
vector 13 SimpleBlackhole.host1.wlan[0].radio transmissionState:vector ETV
attr interpolationmode sample-hold
attr source transmissionStateChanged
attr title "Radio transmission state, vector"
vector 14 SimpleBlackhole.host2.wlan[0].radio receptionState:vector ETV
attr interpolationmode sample-hold
attr source receptionStateChanged
attr title "Radio reception state, vector"
vector 15 SimpleBlackhole.host2.wlan[0].radio transmissionState:vector ETV
attr interpolationmode sample-hold
attr source transmissionStateChanged
attr title "Radio transmission state, vector"
vector 16 SimpleBlackhole.bh.wlan[0].radio receptionState:vector ETV
attr interpolationmode sample-hold
attr source receptionStateChanged
attr title "Radio reception state, vector"
vector 17 SimpleBlackhole.bh.wlan[0].radio transmissionState:vector ETV
attr interpolationmode sample-hold
attr source transmissionStateChanged
attr title "Radio transmission state, vector"
vector 18 SimpleBlackhole.host3.wlan[0].radio receptionState:vector ETV
attr interpolationmode sample-hold
attr source receptionStateChanged
attr title "Radio reception state, vector"
vector 19 SimpleBlackhole.host3.wlan[0].radio transmissionState:vector ETV
attr interpolationmode sample-hold
attr source transmissionStateChanged
attr title "Radio transmission state, vector"
vector 20 SimpleBlackhole.host4.wlan[0].radio receptionState:vector ETV
attr interpolationmode sample-hold
attr source receptionStateChanged
attr title "Radio reception state, vector"
vector 21 SimpleBlackhole.host4.wlan[0].radio transmissionState:vector ETV
attr interpolationmode sample-hold
attr source transmissionStateChanged
attr title "Radio transmission state, vector"
vector 22 SimpleBlackhole.bh1.wlan[0].radio receptionState:vector ETV
attr interpolationmode sample-hold
attr source receptionStateChanged
attr title "Radio reception state, vector"
vector 23 SimpleBlackhole.bh1.wlan[0].radio transmissionState:vector ETV
attr interpolationmode sample-hold
attr source transmissionStateChanged
attr title "Radio transmission state, vector"
vector 24 SimpleBlackhole.sender.app[0] packetSent:vector(packetBytes) ETV
attr interpolationmode none
attr source packetSent
attr title "packets sent, vector(packetBytes)"
vector 25 SimpleBlackhole.sender.udp packetSent:vector(packetBytes) ETV
attr interpolationmode none
attr source packetSent
attr title "packets sent, vector(packetBytes)"
vector 26 SimpleBlackhole.sender.wlan[0].mac rcvdPkFromHl:vector(packetBytes) ETV
attr interpolationmode none
attr source packetReceivedFromUpper
attr title "packets received from higher layer, vector(packetBytes)"
vector 27 SimpleBlackhole.sender.wlan[0].mac.queue packetPushed:vector(packetBytes) ETV
attr interpolationmode none
attr title "packet pushed, vector(packetBytes)"
vector 28 SimpleBlackhole.sender.wlan[0].mac.queue queueLength:vector ETV
attr interpolationmode sample-hold
attr source "count(packetPushed) - count(packetPopped) - count(packetRemoved) - count(packetDropped)"
attr title "queue length, vector"
vector 29 SimpleBlackhole.sender.wlan[0].mac.queue packetPopped:vector(packetBytes) ETV
attr interpolationmode none
attr title "packet popped, vector(packetBytes)"
vector 30 SimpleBlackhole.sender.wlan[0].mac.queue queueingTime:vector ETV
attr interpolationmode none
attr source queueingTime(packetPopped)
attr title "queueing times, vector"
attr unit s
vector 31 SimpleBlackhole.sender.wlan[0].mac sentDownPk:vector(packetBytes) ETV
attr interpolationmode none
attr source packetSentToLower
attr title "packets sent to lower layer, vector(packetBytes)"
vector 32 SimpleBlackhole.host4.wlan[0].mac rcvdPkFromLl:vector(packetBytes) ETV
attr interpolationmode none
attr source packetReceivedFromLower
attr title "packets received from lower layer, vector(packetBytes)"
vector 33 SimpleBlackhole.host4.wlan[0].mac passedUpPk:vector(packetBytes) ETV
attr interpolationmode none
attr source packetSentToUpper
attr title "packets passed to higher layer, vector(packetBytes)"
vector 34 SimpleBlackhole.host4.udp packetReceived:vector(packetBytes) ETV
attr interpolationmode none
attr source packetReceived
attr title "packets received, vector(packetBytes)"
vector 35 SimpleBlackhole.host4.udp passedUpPk:vector(count) ETV
attr interpolationmode none
attr source packetSentToUpper
attr title "packets passed up, vector(count)"
vector 36 SimpleBlackhole.host2.wlan[0].mac rcvdPkFromLl:vector(packetBytes) ETV
attr interpolationmode none
attr source packetReceivedFromLower
attr title "packets received from lower layer, vector(packetBytes)"
vector 37 SimpleBlackhole.host2.wlan[0].mac passedUpPk:vector(packetBytes) ETV
attr interpolationmode none
attr source packetSentToUpper
attr title "packets passed to higher layer, vector(packetBytes)"
vector 38 SimpleBlackhole.host2.udp packetReceived:vector(packetBytes) ETV
attr interpolationmode none
attr source packetReceived
attr title "packets received, vector(packetBytes)"
vector 39 SimpleBlackhole.host2.udp passedUpPk:vector(count) ETV
attr interpolationmode none
attr source packetSentToUpper
attr title "packets passed up, vector(count)"
vector 40 SimpleBlackhole.host4.udp packetSent:vector(packetBytes) ETV
attr interpolationmode none
attr source packetSent
attr title "packets sent, vector(packetBytes)"
vector 41 SimpleBlackhole.host4.wlan[0].mac rcvdPkFromHl:vector(packetBytes) ETV
attr interpolationmode none
attr source packetReceivedFromUpper
attr title "packets received from higher layer, vector(packetBytes)"
vector 42 SimpleBlackhole.host4.wlan[0].mac.queue packetPushed:vector(packetBytes) ETV
attr interpolationmode none
attr title "packet pushed, vector(packetBytes)"
vector 43 SimpleBlackhole.host4.wlan[0].mac.queue queueLength:vector ETV
attr interpolationmode sample-hold
attr source "count(packetPushed) - count(packetPopped) - count(packetRemoved) - count(packetDropped)"
attr title "queue length, vector"
vector 44 SimpleBlackhole.host4.wlan[0].mac.queue packetPopped:vector(packetBytes) ETV
attr interpolationmode none
attr title "packet popped, vector(packetBytes)"
vector 45 SimpleBlackhole.host4.wlan[0].mac.queue queueingTime:vector ETV
attr interpolationmode none
attr source queueingTime(packetPopped)
attr title "queueing times, vector"
attr unit s
vector 46 SimpleBlackhole.host4.wlan[0].mac sentDownPk:vector(packetBytes) ETV
attr interpolationmode none
attr source packetSentToLower
attr title "packets sent to lower layer, vector(packetBytes)"
vector 47 SimpleBlackhole.sender.wlan[0].mac rcvdPkFromLl:vector(packetBytes) ETV
attr interpolationmode none
attr source packetReceivedFromLower
attr title "packets received from lower layer, vector(packetBytes)"
vector 48 SimpleBlackhole.sender.wlan[0].mac passedUpPk:vector(packetBytes) ETV
attr interpolationmode none
attr source packetSentToUpper
attr title "packets passed to higher layer, vector(packetBytes)"
vector 49 SimpleBlackhole.sender.udp packetReceived:vector(packetBytes) ETV
attr interpolationmode none
attr source packetReceived
attr title "packets received, vector(packetBytes)"
vector 50 SimpleBlackhole.sender.udp passedUpPk:vector(count) ETV
attr interpolationmode none
attr source packetSentToUpper
attr title "packets passed up, vector(count)"
vector 51 SimpleBlackhole.bh1.wlan[0].mac rcvdPkFromLl:vector(packetBytes) ETV
attr interpolationmode none
attr source packetReceivedFromLower
attr title "packets received from lower layer, vector(packetBytes)"
vector 52 SimpleBlackhole.bh1.wlan[0].mac passedUpPk:vector(packetBytes) ETV
attr interpolationmode none
attr source packetSentToUpper
attr title "packets passed to higher layer, vector(packetBytes)"
vector 53 SimpleBlackhole.bh1.udp packetReceived:vector(packetBytes) ETV
attr interpolationmode none
attr source packetReceived
attr title "packets received, vector(packetBytes)"
vector 54 SimpleBlackhole.bh1.udp passedUpPk:vector(count) ETV
attr interpolationmode none
attr source packetSentToUpper
attr title "packets passed up, vector(count)"
vector 55 SimpleBlackhole.bh1.udp packetSent:vector(packetBytes) ETV
attr interpolationmode none
attr source packetSent
attr title "packets sent, vector(packetBytes)"
vector 56 SimpleBlackhole.bh1.ipv4.arp arpRequestSent:vector(packetBytes) ETV
attr source arpRequestSent
attr title "ARP request sent, vector(packetBytes)"
vector 57 SimpleBlackhole.bh1.wlan[0].mac rcvdPkFromHl:vector(packetBytes) ETV
attr interpolationmode none
attr source packetReceivedFromUpper
attr title "packets received from higher layer, vector(packetBytes)"
vector 58 SimpleBlackhole.bh1.wlan[0].mac.queue packetPushed:vector(packetBytes) ETV
attr interpolationmode none
attr title "packet pushed, vector(packetBytes)"
vector 59 SimpleBlackhole.bh1.wlan[0].mac.queue queueLength:vector ETV
attr interpolationmode sample-hold
attr source "count(packetPushed) - count(packetPopped) - count(packetRemoved) - count(packetDropped)"
attr title "queue length, vector"
vector 60 SimpleBlackhole.bh1.wlan[0].mac.queue packetPopped:vector(packetBytes) ETV
attr interpolationmode none
attr title "packet popped, vector(packetBytes)"
vector 61 SimpleBlackhole.bh1.wlan[0].mac.queue queueingTime:vector ETV
attr interpolationmode none
attr source queueingTime(packetPopped)
attr title "queueing times, vector"
attr unit s
vector 62 SimpleBlackhole.bh1.wlan[0].mac sentDownPk:vector(packetBytes) ETV
attr interpolationmode none
attr source packetSentToLower
attr title "packets sent to lower layer, vector(packetBytes)"
vector 63 SimpleBlackhole.host3.wlan[0].mac rcvdPkFromLl:vector(packetBytes) ETV
attr interpolationmode none
attr source packetReceivedFromLower
attr title "packets received from lower layer, vector(packetBytes)"
vector 64 SimpleBlackhole.host3.wlan[0].mac passedUpPk:vector(packetBytes) ETV
attr interpolationmode none
attr source packetSentToUpper
attr title "packets passed to higher layer, vector(packetBytes)"
vector 65 SimpleBlackhole.host3.udp packetReceived:vector(packetBytes) ETV
attr interpolationmode none
attr source packetReceived
attr title "packets received, vector(packetBytes)"
vector 66 SimpleBlackhole.host3.udp passedUpPk:vector(count) ETV
attr interpolationmode none
attr source packetSentToUpper
attr title "packets passed up, vector(count)"
vector 67 SimpleBlackhole.host4.ipv4.arp arpReplySent:vector(packetBytes) ETV
attr source arpReplySent
attr title "ARP replies sent, vector(packetBytes)"
vector 68 SimpleBlackhole.host2.udp packetSent:vector(packetBytes) ETV
attr interpolationmode none
attr source packetSent
attr title "packets sent, vector(packetBytes)"
vector 69 SimpleBlackhole.host2.wlan[0].mac rcvdPkFromHl:vector(packetBytes) ETV
attr interpolationmode none
attr source packetReceivedFromUpper
attr title "packets received from higher layer, vector(packetBytes)"
vector 70 SimpleBlackhole.host2.wlan[0].mac.queue packetPushed:vector(packetBytes) ETV
attr interpolationmode none
attr title "packet pushed, vector(packetBytes)"
vector 71 SimpleBlackhole.host2.wlan[0].mac.queue queueLength:vector ETV
attr interpolationmode sample-hold
attr source "count(packetPushed) - count(packetPopped) - count(packetRemoved) - count(packetDropped)"
attr title "queue length, vector"
vector 72 SimpleBlackhole.host2.wlan[0].mac.queue packetPopped:vector(packetBytes) ETV
attr interpolationmode none
attr title "packet popped, vector(packetBytes)"
vector 73 SimpleBlackhole.host2.wlan[0].mac.queue queueingTime:vector ETV
attr interpolationmode none
attr source queueingTime(packetPopped)
attr title "queueing times, vector"
attr unit s
vector 74 SimpleBlackhole.host2.wlan[0].mac sentDownPk:vector(packetBytes) ETV
attr interpolationmode none
attr source packetSentToLower
attr title "packets sent to lower layer, vector(packetBytes)"
vector 75 SimpleBlackhole.sender.wlan[0].mac packetDropNotAddressedToUs:vector(packetBytes) ETV
attr interpolationmode none
attr source packetDropReasonIsNotAddressedToUs(packetDropped)
attr title "packet drop: not addressed to us, vector(packetBytes)"
vector 76 SimpleBlackhole.host2.wlan[0].mac packetDropNotAddressedToUs:vector(packetBytes) ETV
attr interpolationmode none
attr source packetDropReasonIsNotAddressedToUs(packetDropped)
attr title "packet drop: not addressed to us, vector(packetBytes)"
vector 77 SimpleBlackhole.host3.wlan[0].mac packetDropNotAddressedToUs:vector(packetBytes) ETV
attr interpolationmode none
attr source packetDropReasonIsNotAddressedToUs(packetDropped)
attr title "packet drop: not addressed to us, vector(packetBytes)"
vector 78 SimpleBlackhole.host1.wlan[0].mac rcvdPkFromLl:vector(packetBytes) ETV
attr interpolationmode none
attr source packetReceivedFromLower
attr title "packets received from lower layer, vector(packetBytes)"
vector 79 SimpleBlackhole.host1.wlan[0].mac passedUpPk:vector(packetBytes) ETV
attr interpolationmode none
attr source packetSentToUpper
attr title "packets passed to higher layer, vector(packetBytes)"
vector 80 SimpleBlackhole.host1.udp packetReceived:vector(packetBytes) ETV
attr interpolationmode none
attr source packetReceived
attr title "packets received, vector(packetBytes)"
vector 81 SimpleBlackhole.host1.udp passedUpPk:vector(count) ETV
attr interpolationmode none
attr source packetSentToUpper
attr title "packets passed up, vector(count)"
vector 82 SimpleBlackhole.bh.wlan[0].mac rcvdPkFromLl:vector(packetBytes) ETV
attr interpolationmode none
attr source packetReceivedFromLower
attr title "packets received from lower layer, vector(packetBytes)"
vector 83 SimpleBlackhole.bh.wlan[0].mac passedUpPk:vector(packetBytes) ETV
attr interpolationmode none
attr source packetSentToUpper
attr title "packets passed to higher layer, vector(packetBytes)"
vector 84 SimpleBlackhole.bh.udp packetReceived:vector(packetBytes) ETV
attr interpolationmode none
attr source packetReceived
attr title "packets received, vector(packetBytes)"
vector 85 SimpleBlackhole.bh.udp passedUpPk:vector(count) ETV
attr interpolationmode none
attr source packetSentToUpper
attr title "packets passed up, vector(count)"
vector 86 SimpleBlackhole.bh.udp packetSent:vector(packetBytes) ETV
attr interpolationmode none
attr source packetSent
attr title "packets sent, vector(packetBytes)"
vector 87 SimpleBlackhole.bh.ipv4.arp arpRequestSent:vector(packetBytes) ETV
attr source arpRequestSent
attr title "ARP request sent, vector(packetBytes)"
vector 88 SimpleBlackhole.bh.wlan[0].mac rcvdPkFromHl:vector(packetBytes) ETV
attr interpolationmode none
attr source packetReceivedFromUpper
attr title "packets received from higher layer, vector(packetBytes)"
vector 89 SimpleBlackhole.bh.wlan[0].mac.queue packetPushed:vector(packetBytes) ETV
attr interpolationmode none
attr title "packet pushed, vector(packetBytes)"
vector 90 SimpleBlackhole.bh.wlan[0].mac.queue queueLength:vector ETV
attr interpolationmode sample-hold
attr source "count(packetPushed) - count(packetPopped) - count(packetRemoved) - count(packetDropped)"
attr title "queue length, vector"
vector 91 SimpleBlackhole.bh.wlan[0].mac.queue packetPopped:vector(packetBytes) ETV
attr interpolationmode none
attr title "packet popped, vector(packetBytes)"
vector 92 SimpleBlackhole.bh.wlan[0].mac.queue queueingTime:vector ETV
attr interpolationmode none
attr source queueingTime(packetPopped)
attr title "queueing times, vector"
attr unit s
vector 93 SimpleBlackhole.bh.wlan[0].mac sentDownPk:vector(packetBytes) ETV
attr interpolationmode none
attr source packetSentToLower
attr title "packets sent to lower layer, vector(packetBytes)"
vector 94 SimpleBlackhole.host2.ipv4.arp arpReplySent:vector(packetBytes) ETV
attr source arpReplySent
attr title "ARP replies sent, vector(packetBytes)"
vector 95 SimpleBlackhole.receiver.wlan[0].mac rcvdPkFromLl:vector(packetBytes) ETV
attr interpolationmode none
attr source packetReceivedFromLower
attr title "packets received from lower layer, vector(packetBytes)"
vector 96 SimpleBlackhole.receiver.wlan[0].mac passedUpPk:vector(packetBytes) ETV
attr interpolationmode none
attr source packetSentToUpper
attr title "packets passed to higher layer, vector(packetBytes)"
vector 97 SimpleBlackhole.host1.wlan[0].mac packetDropNotAddressedToUs:vector(packetBytes) ETV
attr interpolationmode none
attr source packetDropReasonIsNotAddressedToUs(packetDropped)
attr title "packet drop: not addressed to us, vector(packetBytes)"
vector 98 SimpleBlackhole.host4.wlan[0].mac packetDropNotAddressedToUs:vector(packetBytes) ETV
attr interpolationmode none
attr source packetDropReasonIsNotAddressedToUs(packetDropped)
attr title "packet drop: not addressed to us, vector(packetBytes)"
vector 99 SimpleBlackhole.receiver.wlan[0].mac packetDropNotAddressedToUs:vector(packetBytes) ETV
attr interpolationmode none
attr source packetDropReasonIsNotAddressedToUs(packetDropped)
attr title "packet drop: not addressed to us, vector(packetBytes)"
vector 100 SimpleBlackhole.host3.udp packetSent:vector(packetBytes) ETV
attr interpolationmode none
attr source packetSent
attr title "packets sent, vector(packetBytes)"
vector 101 SimpleBlackhole.host3.wlan[0].mac rcvdPkFromHl:vector(packetBytes) ETV
attr interpolationmode none
attr source packetReceivedFromUpper
attr title "packets received from higher layer, vector(packetBytes)"
vector 102 SimpleBlackhole.host3.wlan[0].mac.queue packetPushed:vector(packetBytes) ETV
attr interpolationmode none
attr title "packet pushed, vector(packetBytes)"
vector 103 SimpleBlackhole.host3.wlan[0].mac.queue queueLength:vector ETV
attr interpolationmode sample-hold
attr source "count(packetPushed) - count(packetPopped) - count(packetRemoved) - count(packetDropped)"
attr title "queue length, vector"
vector 104 SimpleBlackhole.host3.wlan[0].mac.queue packetPopped:vector(packetBytes) ETV
attr interpolationmode none
attr title "packet popped, vector(packetBytes)"
vector 105 SimpleBlackhole.host3.wlan[0].mac.queue queueingTime:vector ETV
attr interpolationmode none
attr source queueingTime(packetPopped)
attr title "queueing times, vector"
attr unit s
vector 106 SimpleBlackhole.host3.wlan[0].mac sentDownPk:vector(packetBytes) ETV
attr interpolationmode none
attr source packetSentToLower
attr title "packets sent to lower layer, vector(packetBytes)"
vector 107 SimpleBlackhole.host1.udp packetSent:vector(packetBytes) ETV
attr interpolationmode none
attr source packetSent
attr title "packets sent, vector(packetBytes)"
vector 108 SimpleBlackhole.host1.wlan[0].mac rcvdPkFromHl:vector(packetBytes) ETV
attr interpolationmode none
attr source packetReceivedFromUpper
attr title "packets received from higher layer, vector(packetBytes)"
vector 109 SimpleBlackhole.host1.wlan[0].mac.queue packetPushed:vector(packetBytes) ETV
attr interpolationmode none
attr title "packet pushed, vector(packetBytes)"
vector 110 SimpleBlackhole.host1.wlan[0].mac.queue queueLength:vector ETV
attr interpolationmode sample-hold
attr source "count(packetPushed) - count(packetPopped) - count(packetRemoved) - count(packetDropped)"
attr title "queue length, vector"
vector 111 SimpleBlackhole.host1.wlan[0].mac.queue packetPopped:vector(packetBytes) ETV
attr interpolationmode none
attr title "packet popped, vector(packetBytes)"
vector 112 SimpleBlackhole.host1.wlan[0].mac.queue queueingTime:vector ETV
attr interpolationmode none
attr source queueingTime(packetPopped)
attr title "queueing times, vector"
attr unit s
vector 113 SimpleBlackhole.host1.wlan[0].mac sentDownPk:vector(packetBytes) ETV
attr interpolationmode none
attr source packetSentToLower
attr title "packets sent to lower layer, vector(packetBytes)"
vector 114 SimpleBlackhole.receiver.udp packetReceived:vector(packetBytes) ETV
attr interpolationmode none
attr source packetReceived
attr title "packets received, vector(packetBytes)"
vector 115 SimpleBlackhole.receiver.udp passedUpPk:vector(count) ETV
attr interpolationmode none
attr source packetSentToUpper
attr title "packets passed up, vector(count)"
vector 116 SimpleBlackhole.receiver.udp packetSent:vector(packetBytes) ETV
attr interpolationmode none
attr source packetSent
attr title "packets sent, vector(packetBytes)"
vector 117 SimpleBlackhole.receiver.ipv4.arp arpRequestSent:vector(packetBytes) ETV
attr source arpRequestSent
attr title "ARP request sent, vector(packetBytes)"
vector 118 SimpleBlackhole.receiver.wlan[0].mac rcvdPkFromHl:vector(packetBytes) ETV
attr interpolationmode none
attr source packetReceivedFromUpper
attr title "packets received from higher layer, vector(packetBytes)"
vector 119 SimpleBlackhole.receiver.wlan[0].mac.queue packetPushed:vector(packetBytes) ETV
attr interpolationmode none
attr title "packet pushed, vector(packetBytes)"
vector 120 SimpleBlackhole.receiver.wlan[0].mac.queue queueLength:vector ETV
attr interpolationmode sample-hold
attr source "count(packetPushed) - count(packetPopped) - count(packetRemoved) - count(packetDropped)"
attr title "queue length, vector"
vector 121 SimpleBlackhole.receiver.wlan[0].mac.queue packetPopped:vector(packetBytes) ETV
attr interpolationmode none
attr title "packet popped, vector(packetBytes)"
vector 122 SimpleBlackhole.receiver.wlan[0].mac.queue queueingTime:vector ETV
attr interpolationmode none
attr source queueingTime(packetPopped)
attr title "queueing times, vector"
attr unit s
vector 123 SimpleBlackhole.receiver.wlan[0].mac sentDownPk:vector(packetBytes) ETV
attr interpolationmode none
attr source packetSentToLower
attr title "packets sent to lower layer, vector(packetBytes)"
vector 124 SimpleBlackhole.host1.ipv4.arp arpReplySent:vector(packetBytes) ETV
attr source arpReplySent
attr title "ARP replies sent, vector(packetBytes)"
vector 125 SimpleBlackhole.bh.wlan[0].mac packetDropNotAddressedToUs:vector(packetBytes) ETV
attr interpolationmode none
attr source packetDropReasonIsNotAddressedToUs(packetDropped)
attr title "packet drop: not addressed to us, vector(packetBytes)"
vector 126 SimpleBlackhole.host1.ipv4.arp arpRequestSent:vector(packetBytes) ETV
attr source arpRequestSent
attr title "ARP request sent, vector(packetBytes)"
vector 127 SimpleBlackhole.host2.ipv4.arp arpRequestSent:vector(packetBytes) ETV
attr source arpRequestSent
attr title "ARP request sent, vector(packetBytes)"
vector 128 SimpleBlackhole.sender.ipv4.arp arpReplySent:vector(packetBytes) ETV
attr source arpReplySent
attr title "ARP replies sent, vector(packetBytes)"
vector 129 SimpleBlackhole.receiver.app[0] packetReceived:vector(packetBytes) ETV
attr interpolationmode none
attr source packetReceived
attr title "packets received, vector(packetBytes)"
vector 130 SimpleBlackhole.receiver.app[0] throughput:vector ETV
attr source throughput(packetReceived)
attr title "throughput, vector"
attr unit bps
vector 131 SimpleBlackhole.receiver.app[0] endToEndDelay:vector ETV
attr interpolationmode none
attr source dataAge(packetReceived)
attr title "end-to-end delay, vector"
attr unit s
vector 132 SimpleBlackhole.receiver.app[0] rcvdPkSeqNo:vector ETV
attr interpolationmode none
attr source appPkSeqNo(packetReceived)
attr title "received packet sequence number, vector"
vector 133 SimpleBlackhole.sender.app[0] throughput:vector ETV
attr source throughput(packetReceived)
attr title "throughput, vector"
attr unit bps
0	27033 24 0 0 0 0 3 0 4 4 16
1	27057 24 0 0 0 0 3 0 4 4 16
2	27081 24 0 0 0 0 3 0 4 4 16
3	27105 24 0 0 0 0 3 0 4 4 16
4	27129 24 0 0 0 0 3 0 4 4 16
5	27153 24 0 0 0 0 3 0 4 4 16
6	27177 24 0 0 0 0 3 0 4 4 16
7	27201 24 0 0 0 0 3 0 4 4 16
8	27225 5367 0 8876 0 99.004600991532 218 1 3 435 1085
9	32592 3050 0 8916 0 100 208 1 2 312 520
10	35642 5519 0 8890 0 99.006901259134 215 1 3 429 1071
11	41161 105 0 564 0 0.333525871875 5 1 2 7 11
12	41266 5709 0 8865 0 99.004600855397 223 1 3 445 1111
13	46975 5375 0 8887 0 99.006900855397 209 1 2 313 521
14	52350 11015 0 8888 0 99.006901215028 429 1 3 857 2141
15	63365 5470 0 8864 0 99.004600495766 213 1 2 319 531
16	68835 10981 0 8895 0 99.006901264146 427 1 3 853 2131
17	79816 153 0 432 0 0.329554906584 7 1 2 10 16
18	79969 5727 0 8872 0 99.004600936803 224 1 3 447 1115
19	85696 57 0 459 0 0.330177345443 3 1 2 4 6
20	85753 10992 0 8874 0 99.004600957123 428 1 3 855 2135
21	96745 149 0 334 0 0.327710530057 7 1 2 10 16
22	96894 151 0 340 0 0.327710925538 7 1 3 13 31
23	97045 200 0 369 0 0.328042925538 9 1 2 13 21
24	97245 1501 21 8912 0 100 101 512 512 51712 26476544
25	98746 1550 24 8913 0 100 103 32 520 52584 27312448
26	100296 1589 31 8915 0.002964223082 100 104 28 540 54672 29457792
27	101885 1589 31 8915 0.002964223082 100 104 28 540 54672 29457792
28	103474 2768 31 8915 0.002964223082 100 208 0 1 104 104
29	106242 1589 31 8915 0.002964223082 100 104 28 540 54672 29457792
30	107831 1384 31 8915 0.002964223082 100 104 0 0 0 0
31	109215 1589 31 8915 0.002964223082 100 104 51 563 57064 32027720
32	110804 5893 42 8875 0.003312609153 99.004600957123 213 51 563 113451 63451253
33	116697 222 42 677 0.003312609153 0.339767194978 9 28 56 420 20528
34	116919 173 44 473 0.003312609153 0.330177886845 7 28 36 224 7200
35	117092 166 44 473 0.003312609153 0.330177886845 7 1 7 28 140
36	117258 5917 47 8889 0.003312718848 99.006901215028 214 51 563 113518 63455678
37	123175 3080 47 8848 0.003312718848 99.002300495766 112 28 540 54540 29185488
38	126255 219 49 640 0.003312718848 0.33759282508 9 28 32 276 8496
39	126474 210 49 640 0.003312718848 0.33759282508 9 1 9 45 285
40	126684 49 57 323 0.006888555978 0.327362530057 2 32 32 64 2048
41	126733 73 59 325 0.006888555978 0.327362530057 3 28 52 132 6192
42	126806 73 59 325 0.006888555978 0.327362530057 3 28 52 132 6192
43	126879 140 59 325 0.006888555978 0.327362530057 6 0 1 3 3
44	127019 73 59 325 0.006888555978 0.327362530057 3 28 52 132 6192
45	127092 70 59 325 0.006888555978 0.327362530057 3 0 0 0 0
46	127162 73 59 325 0.006888555978 0.327362530057 3 51 75 201 13851
47	127235 2984 70 8877 0.007236942049 99.004600991532 108 51 563 56800 31729220
48	130219 124 70 724 0.007236942049 0.340352220919 5 28 52 232 11200
49	130343 99 72 726 0.007236942049 0.340352220919 4 28 32 124 3856
50	130442 95 72 726 0.007236942049 0.340352220919 4 1 4 10 30
51	130537 74 75 341 0.007236951459 0.327710925538 3 51 75 201 13851
52	130611 74 75 341 0.007236951459 0.327710925538 3 28 52 132 6192
53	130685 49 77 343 0.007236951459 0.327710925538 2 32 32 64 2048
54	130734 47 77 343 0.007236951459 0.327710925538 2 1 2 3 5
55	130781 74 79 345 0.007236951459 0.327710925538 3 28 36 92 2864
56	130855 24 80 80 0.007236951459 0.007236951459 1 28 28 28 784
57	130879 99 81 347 0.007236951459 0.327710925538 4 28 56 180 8528
58	130978 99 81 347 0.007236951459 0.327710925538 4 28 56 180 8528
59	131077 190 81 347 0.007236951459 0.327710925538 8 0 1 4 4
60	131267 99 81 347 0.007236951459 0.327710925538 4 28 56 180 8528
61	131366 95 81 347 0.007236951459 0.327710925538 4 0 0 0 0
62	131461 99 81 347 0.007236951459 0.327710925538 4 51 79 272 18924
63	131560 3058 89 8873 0.00723709738 99.004600936803 111 51 563 56993 31741903
64	134618 123 89 674 0.00723709738 0.339767174658 5 28 52 212 9680
65	134741 73 91 411 0.00723709738 0.329222923588 3 32 32 96 3072
66	134814 70 91 411 0.00723709738 0.329222923588 3 1 3 6 14
67	134884 24 106 106 0.00748934694 0.00748934694 1 28 28 28 784
68	134908 75 123 654 0.007534047568 0.339514733621 3 28 32 92 2832
69	134983 2936 125 8850 0.007534047568 99.002300495766 106 28 540 54236 29170064
70	137919 2936 125 8850 0.007534047568 99.002300495766 106 28 540 54236 29170064
71	140855 5460 125 8850 0.007534047568 99.002300495766 212 0 1 106 106
72	146315 2936 125 8850 0.007534047568 99.002300495766 106 28 540 54236 29170064
73	149251 2730 125 8850 0.007534047568 99.002300495766 106 0 0 0 0
74	151981 2936 125 8850 0.007534047568 99.002300495766 106 51 563 56674 31720994
75	154917 2860 136 8877 0.007741733011 99.004600991532 103 51 563 56453 31704703
76	157777 2837 143 8889 0.007741808297 99.006901215028 102 51 563 56402 31702102
77	160614 2935 145 8873 0.007741888342 99.004600936803 106 51 563 56666 31719826
78	163549 3061 158 8866 0.007882407199 99.004600855397 111 51 563 56989 31741319
79	166610 2961 158 8866 0.007882407199 99.004600855397 107 28 540 54264 29170848
80	169571 75 160 568 0.007882407199 0.333526275612 3 28 32 92 2832
81	169646 72 160 568 0.007882407199 0.333526275612 3 1 3 6 14
82	169718 5899 163 8896 0.007882471601 99.006901264146 213 51 563 113419 63447029
83	175617 200 163 671 0.007882471601 0.339767157654 8 28 52 320 13952
84	175817 100 165 509 0.007882471601 0.332689069413 4 32 32 128 4096
85	175917 96 165 509 0.007882471601 0.332689069413 4 1 4 10 30
86	176013 50 167 404 0.007882471601 0.329222906584 2 28 28 56 1568
87	176063 25 168 168 0.007882471601 0.007882471601 1 28 28 28 784
88	176088 75 169 406 0.007882471601 0.329222906584 3 28 48 124 5392
89	176163 75 169 406 0.007882471601 0.329222906584 3 28 48 124 5392
90	176238 144 169 406 0.007882471601 0.329222906584 6 0 1 3 3
91	176382 75 169 406 0.007882471601 0.329222906584 3 28 48 124 5392
92	176457 72 169 406 0.007882471601 0.329222906584 3 0 0 0 0
93	176529 75 169 406 0.007882471601 0.329222906584 3 51 71 193 12683
94	176604 50 201 593 0.008134895634 0.337008105818 2 28 28 56 1568
95	176654 2962 208 8891 0.008134986739 99.006901259134 107 51 563 56741 31725451
96	179616 2887 208 8891 0.008134986739 99.006901259134 104 28 540 54136 29165056
97	182503 100 222 716 0.008387255265 0.340352084784 4 51 71 264 17724
98	182603 5671 231 8875 0.008387356991 99.004600957123 204 51 563 112824 63406644
99	188274 75 254 643 0.008719834805 0.337592869186 3 71 71 213 15123
100	188349 26 448 448 0.329829345443 0.329829345443 1 32 32 32 1024
101	188375 26 450 450 0.329829345443 0.329829345443 1 52 52 52 2704
102	188401 26 450 450 0.329829345443 0.329829345443 1 52 52 52 2704
103	188427 50 450 450 0.329829345443 0.329829345443 2 0 1 1 1
104	188477 26 450 450 0.329829345443 0.329829345443 1 52 52 52 2704
105	188503 25 450 450 0.329829345443 0.329829345443 1 0 0 0 0
106	188528 26 450 450 0.329829345443 0.329829345443 1 75 75 75 5625
107	188554 52 480 579 0.332340660664 0.336755746187 2 28 32 60 1808
108	188606 2991 482 8868 0.332340660664 99.004600855397 104 28 540 54156 29166576
109	191597 2991 482 8868 0.332340660664 99.004600855397 104 28 540 54156 29166576
110	194588 5574 482 8868 0.332340660664 99.004600855397 208 0 1 104 104
111	200162 2991 482 8868 0.332340660664 99.004600855397 104 28 540 54156 29166576
112	203153 2787 482 8868 0.332340660664 99.004600855397 104 0 0 0 0
113	205940 2991 482 8868 0.332340660664 99.004600855397 104 51 563 56548 31712768
114	208931 2913 500 8893 0.332689064401 99.006901259134 101 32 520 52032 27041024
115	211844 2806 500 8893 0.332689064401 99.006901259134 101 1 101 5151 348551
116	214650 26 502 502 0.332689064401 0.332689064401 1 28 28 28 784
117	214676 26 503 503 0.332689064401 0.332689064401 1 28 28 28 784
118	214702 52 504 549 0.332689064401 0.333193871875 2 28 48 76 3088
119	214754 52 504 549 0.332689064401 0.333193871875 2 28 48 76 3088
120	214806 100 504 549 0.332689064401 0.333193871875 4 0 1 2 2
121	214906 52 504 549 0.332689064401 0.333193871875 2 28 48 76 3088
122	214958 50 504 549 0.332689064401 0.333193871875 2 0 0 0 0
123	215008 52 504 549 0.332689064401 0.333193871875 2 51 71 122 7642
124	215060 26 525 525 0.332941468138 0.332941468138 1 28 28 28 784
125	215086 5904 552 8896 0.333193876887 99.006901264146 205 51 563 112915 63414125
126	220990 26 580 580 0.336755746187 0.336755746187 1 28 28 28 784
127	221016 26 655 655 0.339514733621 0.339514733621 1 28 28 28 784
128	221042 26 681 681 0.339767229387 0.339767229387 1 28 28 28 784
129	221068 2887 794 8894 0.347253480053 99.006901259134 100 512 512 51200 26214400
130	223955 16082 794 8917 0.1 100 1000 0 40960 4096000 167772160000
131	240037 3987 794 8894 0.347253480053 99.006901259134 100 0.006901259134 0.347253480053 1.030478134319 0.12530008979475
132	244024 2777 794 8894 0.347253480053 99.006901259134 100 0 99 4950 328350
133	246801 15702 8917 8917 0.1 100 1000 0 0 0 0

