version 2
run General-0-20210524-16:06:43-4213
attr configname General
attr datetime 20210524-16:06:43
attr experiment General
attr inifile omnetpp.ini
attr iterationvars ""
attr iterationvarsf ""
attr measurement ""
attr network SimpleBlackhole
attr processid 4213
attr repetition 0
attr replication #0
attr resultdir results
attr runnumber 0
attr seedset 0
param **.wlan[*].typename "\"AckingWirelessInterface\""
param **.wlan[*].bitrate 2Mbps
param **.wlan[*].mac.headerLength 23B
param **.wlan[*].radio.typename "\"UnitDiskRadio\""
param **.wlan[*].radio.transmitter.headerLength 96b
param **.wlan[*].radio.transmitter.communicationRange 200m
param **.wlan[*].radio.transmitter.interferenceRange 0m
param **.wlan[*].radio.transmitter.detectionRange 0m
param **.wlan[*].radio.receiver.ignoreInterference true
param **.hasStatus true
param *.visualizer.sceneVisualizer.descriptionFigure "\"title\""
param *.visualizer.transportRouteVisualizer.displayRoutes true
param *.visualizer.transportRouteVisualizer.fadeOutMode "\"simulationTime\""
param *.visualizer.transportRouteVisualizer.fadeOutTime 1.2s
param *.sender.wlan[0].radio.displayCommunicationRange true
param *.receiver.wlan[0].radio.displayCommunicationRange true
param *.sender.numApps 1
param *.sender.app[0].typename "\"UdpBasicApp\""
param *.sender.app[0].destAddresses "\"receiver\""
param *.sender.app[0].destPort 1000
param *.sender.app[0].sendInterval 1s
param *.sender.app[0].startTime 0s
param *.sender.app[0].messageLength 512Byte
param *.sender.app[0].packetName "\"UDPdata\""
param *.receiver.numApps 1
param *.receiver.app[0].typename "\"UdpSink\""
param *.receiver.app[0].localPort 1000

vector 0 SimpleBlackhole.sender.wlan[0].radio radioMode:vector ETV
attr interpolationmode sample-hold
attr source radioModeChanged
attr title "Radio mode, vector"
vector 1 SimpleBlackhole.receiver.wlan[0].radio radioMode:vector ETV
attr interpolationmode sample-hold
attr source radioModeChanged
attr title "Radio mode, vector"
vector 2 SimpleBlackhole.host1.wlan[0].radio radioMode:vector ETV
attr interpolationmode sample-hold
attr source radioModeChanged
attr title "Radio mode, vector"
vector 3 SimpleBlackhole.host2.wlan[0].radio radioMode:vector ETV
attr interpolationmode sample-hold
attr source radioModeChanged
attr title "Radio mode, vector"
vector 4 SimpleBlackhole.bh.wlan[0].radio radioMode:vector ETV
attr interpolationmode sample-hold
attr source radioModeChanged
attr title "Radio mode, vector"
vector 5 SimpleBlackhole.host3.wlan[0].radio radioMode:vector ETV
attr interpolationmode sample-hold
attr source radioModeChanged
attr title "Radio mode, vector"
vector 6 SimpleBlackhole.host4.wlan[0].radio radioMode:vector ETV
attr interpolationmode sample-hold
attr source radioModeChanged
attr title "Radio mode, vector"
vector 7 SimpleBlackhole.bh1.wlan[0].radio radioMode:vector ETV
attr interpolationmode sample-hold
attr source radioModeChanged
attr title "Radio mode, vector"
vector 8 SimpleBlackhole.sender.wlan[0].radio receptionState:vector ETV
attr interpolationmode sample-hold
attr source receptionStateChanged
attr title "Radio reception state, vector"
vector 9 SimpleBlackhole.sender.wlan[0].radio transmissionState:vector ETV
attr interpolationmode sample-hold
attr source transmissionStateChanged
attr title "Radio transmission state, vector"
vector 10 SimpleBlackhole.receiver.wlan[0].radio receptionState:vector ETV
attr interpolationmode sample-hold
attr source receptionStateChanged
attr title "Radio reception state, vector"
vector 11 SimpleBlackhole.receiver.wlan[0].radio transmissionState:vector ETV
attr interpolationmode sample-hold
attr source transmissionStateChanged
attr title "Radio transmission state, vector"
vector 12 SimpleBlackhole.host1.wlan[0].radio receptionState:vector ETV
attr interpolationmode sample-hold
attr source receptionStateChanged
attr title "Radio reception state, vector"
vector 13 SimpleBlackhole.host1.wlan[0].radio transmissionState:vector ETV
attr interpolationmode sample-hold
attr source transmissionStateChanged
attr title "Radio transmission state, vector"
vector 14 SimpleBlackhole.host2.wlan[0].radio receptionState:vector ETV
attr interpolationmode sample-hold
attr source receptionStateChanged
attr title "Radio reception state, vector"
vector 15 SimpleBlackhole.host2.wlan[0].radio transmissionState:vector ETV
attr interpolationmode sample-hold
attr source transmissionStateChanged
attr title "Radio transmission state, vector"
vector 16 SimpleBlackhole.bh.wlan[0].radio receptionState:vector ETV
attr interpolationmode sample-hold
attr source receptionStateChanged
attr title "Radio reception state, vector"
vector 17 SimpleBlackhole.bh.wlan[0].radio transmissionState:vector ETV
attr interpolationmode sample-hold
attr source transmissionStateChanged
attr title "Radio transmission state, vector"
vector 18 SimpleBlackhole.host3.wlan[0].radio receptionState:vector ETV
attr interpolationmode sample-hold
attr source receptionStateChanged
attr title "Radio reception state, vector"
vector 19 SimpleBlackhole.host3.wlan[0].radio transmissionState:vector ETV
attr interpolationmode sample-hold
attr source transmissionStateChanged
attr title "Radio transmission state, vector"
vector 20 SimpleBlackhole.host4.wlan[0].radio receptionState:vector ETV
attr interpolationmode sample-hold
attr source receptionStateChanged
attr title "Radio reception state, vector"
vector 21 SimpleBlackhole.host4.wlan[0].radio transmissionState:vector ETV
attr interpolationmode sample-hold
attr source transmissionStateChanged
attr title "Radio transmission state, vector"
vector 22 SimpleBlackhole.bh1.wlan[0].radio receptionState:vector ETV
attr interpolationmode sample-hold
attr source receptionStateChanged
attr title "Radio reception state, vector"
vector 23 SimpleBlackhole.bh1.wlan[0].radio transmissionState:vector ETV
attr interpolationmode sample-hold
attr source transmissionStateChanged
attr title "Radio transmission state, vector"
vector 24 SimpleBlackhole.sender.app[0] packetSent:vector(packetBytes) ETV
attr interpolationmode none
attr source packetSent
attr title "packets sent, vector(packetBytes)"
vector 25 SimpleBlackhole.sender.udp packetSent:vector(packetBytes) ETV
attr interpolationmode none
attr source packetSent
attr title "packets sent, vector(packetBytes)"
vector 26 SimpleBlackhole.sender.wlan[0].mac rcvdPkFromHl:vector(packetBytes) ETV
attr interpolationmode none
attr source packetReceivedFromUpper
attr title "packets received from higher layer, vector(packetBytes)"
vector 27 SimpleBlackhole.sender.wlan[0].mac.queue packetPushed:vector(packetBytes) ETV
attr interpolationmode none
attr title "packet pushed, vector(packetBytes)"
vector 28 SimpleBlackhole.sender.wlan[0].mac.queue queueLength:vector ETV
attr interpolationmode sample-hold
attr source "count(packetPushed) - count(packetPopped) - count(packetRemoved) - count(packetDropped)"
attr title "queue length, vector"
vector 29 SimpleBlackhole.sender.wlan[0].mac.queue packetPopped:vector(packetBytes) ETV
attr interpolationmode none
attr title "packet popped, vector(packetBytes)"
vector 30 SimpleBlackhole.sender.wlan[0].mac.queue queueingTime:vector ETV
attr interpolationmode none
attr source queueingTime(packetPopped)
attr title "queueing times, vector"
attr unit s
vector 31 SimpleBlackhole.sender.wlan[0].mac sentDownPk:vector(packetBytes) ETV
attr interpolationmode none
attr source packetSentToLower
attr title "packets sent to lower layer, vector(packetBytes)"
vector 32 SimpleBlackhole.host4.wlan[0].mac rcvdPkFromLl:vector(packetBytes) ETV
attr interpolationmode none
attr source packetReceivedFromLower
attr title "packets received from lower layer, vector(packetBytes)"
vector 33 SimpleBlackhole.host4.wlan[0].mac passedUpPk:vector(packetBytes) ETV
attr interpolationmode none
attr source packetSentToUpper
attr title "packets passed to higher layer, vector(packetBytes)"
vector 34 SimpleBlackhole.host4.udp packetReceived:vector(packetBytes) ETV
attr interpolationmode none
attr source packetReceived
attr title "packets received, vector(packetBytes)"
vector 35 SimpleBlackhole.host4.udp passedUpPk:vector(count) ETV
attr interpolationmode none
attr source packetSentToUpper
attr title "packets passed up, vector(count)"
vector 36 SimpleBlackhole.host2.wlan[0].mac rcvdPkFromLl:vector(packetBytes) ETV
attr interpolationmode none
attr source packetReceivedFromLower
attr title "packets received from lower layer, vector(packetBytes)"
vector 37 SimpleBlackhole.host2.wlan[0].mac passedUpPk:vector(packetBytes) ETV
attr interpolationmode none
attr source packetSentToUpper
attr title "packets passed to higher layer, vector(packetBytes)"
vector 38 SimpleBlackhole.host2.udp packetReceived:vector(packetBytes) ETV
attr interpolationmode none
attr source packetReceived
attr title "packets received, vector(packetBytes)"
vector 39 SimpleBlackhole.host2.udp passedUpPk:vector(count) ETV
attr interpolationmode none
attr source packetSentToUpper
attr title "packets passed up, vector(count)"
vector 40 SimpleBlackhole.host4.udp packetSent:vector(packetBytes) ETV
attr interpolationmode none
attr source packetSent
attr title "packets sent, vector(packetBytes)"
vector 41 SimpleBlackhole.host4.wlan[0].mac rcvdPkFromHl:vector(packetBytes) ETV
attr interpolationmode none
attr source packetReceivedFromUpper
attr title "packets received from higher layer, vector(packetBytes)"
vector 42 SimpleBlackhole.host4.wlan[0].mac.queue packetPushed:vector(packetBytes) ETV
attr interpolationmode none
attr title "packet pushed, vector(packetBytes)"
vector 43 SimpleBlackhole.host4.wlan[0].mac.queue queueLength:vector ETV
attr interpolationmode sample-hold
attr source "count(packetPushed) - count(packetPopped) - count(packetRemoved) - count(packetDropped)"
attr title "queue length, vector"
vector 44 SimpleBlackhole.host4.wlan[0].mac.queue packetPopped:vector(packetBytes) ETV
attr interpolationmode none
attr title "packet popped, vector(packetBytes)"
vector 45 SimpleBlackhole.host4.wlan[0].mac.queue queueingTime:vector ETV
attr interpolationmode none
attr source queueingTime(packetPopped)
attr title "queueing times, vector"
attr unit s
vector 46 SimpleBlackhole.host4.wlan[0].mac sentDownPk:vector(packetBytes) ETV
attr interpolationmode none
attr source packetSentToLower
attr title "packets sent to lower layer, vector(packetBytes)"
vector 47 SimpleBlackhole.sender.wlan[0].mac rcvdPkFromLl:vector(packetBytes) ETV
attr interpolationmode none
attr source packetReceivedFromLower
attr title "packets received from lower layer, vector(packetBytes)"
vector 48 SimpleBlackhole.sender.wlan[0].mac passedUpPk:vector(packetBytes) ETV
attr interpolationmode none
attr source packetSentToUpper
attr title "packets passed to higher layer, vector(packetBytes)"
vector 49 SimpleBlackhole.sender.udp packetReceived:vector(packetBytes) ETV
attr interpolationmode none
attr source packetReceived
attr title "packets received, vector(packetBytes)"
vector 50 SimpleBlackhole.sender.udp passedUpPk:vector(count) ETV
attr interpolationmode none
attr source packetSentToUpper
attr title "packets passed up, vector(count)"
vector 51 SimpleBlackhole.bh1.wlan[0].mac rcvdPkFromLl:vector(packetBytes) ETV
attr interpolationmode none
attr source packetReceivedFromLower
attr title "packets received from lower layer, vector(packetBytes)"
vector 52 SimpleBlackhole.bh1.wlan[0].mac passedUpPk:vector(packetBytes) ETV
attr interpolationmode none
attr source packetSentToUpper
attr title "packets passed to higher layer, vector(packetBytes)"
vector 53 SimpleBlackhole.bh1.udp packetReceived:vector(packetBytes) ETV
attr interpolationmode none
attr source packetReceived
attr title "packets received, vector(packetBytes)"
vector 54 SimpleBlackhole.bh1.udp passedUpPk:vector(count) ETV
attr interpolationmode none
attr source packetSentToUpper
attr title "packets passed up, vector(count)"
vector 55 SimpleBlackhole.bh1.udp packetSent:vector(packetBytes) ETV
attr interpolationmode none
attr source packetSent
attr title "packets sent, vector(packetBytes)"
vector 56 SimpleBlackhole.bh1.ipv4.arp arpRequestSent:vector(packetBytes) ETV
attr source arpRequestSent
attr title "ARP request sent, vector(packetBytes)"
vector 57 SimpleBlackhole.bh1.wlan[0].mac rcvdPkFromHl:vector(packetBytes) ETV
attr interpolationmode none
attr source packetReceivedFromUpper
attr title "packets received from higher layer, vector(packetBytes)"
vector 58 SimpleBlackhole.bh1.wlan[0].mac.queue packetPushed:vector(packetBytes) ETV
attr interpolationmode none
attr title "packet pushed, vector(packetBytes)"
vector 59 SimpleBlackhole.bh1.wlan[0].mac.queue queueLength:vector ETV
attr interpolationmode sample-hold
attr source "count(packetPushed) - count(packetPopped) - count(packetRemoved) - count(packetDropped)"
attr title "queue length, vector"
vector 60 SimpleBlackhole.bh1.wlan[0].mac.queue packetPopped:vector(packetBytes) ETV
attr interpolationmode none
attr title "packet popped, vector(packetBytes)"
vector 61 SimpleBlackhole.bh1.wlan[0].mac.queue queueingTime:vector ETV
attr interpolationmode none
attr source queueingTime(packetPopped)
attr title "queueing times, vector"
attr unit s
vector 62 SimpleBlackhole.bh1.wlan[0].mac sentDownPk:vector(packetBytes) ETV
attr interpolationmode none
attr source packetSentToLower
attr title "packets sent to lower layer, vector(packetBytes)"
vector 63 SimpleBlackhole.host3.wlan[0].mac rcvdPkFromLl:vector(packetBytes) ETV
attr interpolationmode none
attr source packetReceivedFromLower
attr title "packets received from lower layer, vector(packetBytes)"
vector 64 SimpleBlackhole.host3.wlan[0].mac passedUpPk:vector(packetBytes) ETV
attr interpolationmode none
attr source packetSentToUpper
attr title "packets passed to higher layer, vector(packetBytes)"
vector 65 SimpleBlackhole.host3.udp packetReceived:vector(packetBytes) ETV
attr interpolationmode none
attr source packetReceived
attr title "packets received, vector(packetBytes)"
vector 66 SimpleBlackhole.host3.udp passedUpPk:vector(count) ETV
attr interpolationmode none
attr source packetSentToUpper
attr title "packets passed up, vector(count)"
vector 67 SimpleBlackhole.host4.ipv4.arp arpReplySent:vector(packetBytes) ETV
attr source arpReplySent
attr title "ARP replies sent, vector(packetBytes)"
vector 68 SimpleBlackhole.host2.udp packetSent:vector(packetBytes) ETV
attr interpolationmode none
attr source packetSent
attr title "packets sent, vector(packetBytes)"
vector 69 SimpleBlackhole.host2.wlan[0].mac rcvdPkFromHl:vector(packetBytes) ETV
attr interpolationmode none
attr source packetReceivedFromUpper
attr title "packets received from higher layer, vector(packetBytes)"
vector 70 SimpleBlackhole.host2.wlan[0].mac.queue packetPushed:vector(packetBytes) ETV
attr interpolationmode none
attr title "packet pushed, vector(packetBytes)"
vector 71 SimpleBlackhole.host2.wlan[0].mac.queue queueLength:vector ETV
attr interpolationmode sample-hold
attr source "count(packetPushed) - count(packetPopped) - count(packetRemoved) - count(packetDropped)"
attr title "queue length, vector"
vector 72 SimpleBlackhole.host2.wlan[0].mac.queue packetPopped:vector(packetBytes) ETV
attr interpolationmode none
attr title "packet popped, vector(packetBytes)"
vector 73 SimpleBlackhole.host2.wlan[0].mac.queue queueingTime:vector ETV
attr interpolationmode none
attr source queueingTime(packetPopped)
attr title "queueing times, vector"
attr unit s
vector 74 SimpleBlackhole.host2.wlan[0].mac sentDownPk:vector(packetBytes) ETV
attr interpolationmode none
attr source packetSentToLower
attr title "packets sent to lower layer, vector(packetBytes)"
vector 75 SimpleBlackhole.sender.wlan[0].mac packetDropNotAddressedToUs:vector(packetBytes) ETV
attr interpolationmode none
attr source packetDropReasonIsNotAddressedToUs(packetDropped)
attr title "packet drop: not addressed to us, vector(packetBytes)"
vector 76 SimpleBlackhole.host2.wlan[0].mac packetDropNotAddressedToUs:vector(packetBytes) ETV
attr interpolationmode none
attr source packetDropReasonIsNotAddressedToUs(packetDropped)
attr title "packet drop: not addressed to us, vector(packetBytes)"
vector 77 SimpleBlackhole.host3.wlan[0].mac packetDropNotAddressedToUs:vector(packetBytes) ETV
attr interpolationmode none
attr source packetDropReasonIsNotAddressedToUs(packetDropped)
attr title "packet drop: not addressed to us, vector(packetBytes)"
vector 78 SimpleBlackhole.host1.wlan[0].mac rcvdPkFromLl:vector(packetBytes) ETV
attr interpolationmode none
attr source packetReceivedFromLower
attr title "packets received from lower layer, vector(packetBytes)"
vector 79 SimpleBlackhole.host1.wlan[0].mac passedUpPk:vector(packetBytes) ETV
attr interpolationmode none
attr source packetSentToUpper
attr title "packets passed to higher layer, vector(packetBytes)"
vector 80 SimpleBlackhole.host1.udp packetReceived:vector(packetBytes) ETV
attr interpolationmode none
attr source packetReceived
attr title "packets received, vector(packetBytes)"
vector 81 SimpleBlackhole.host1.udp passedUpPk:vector(count) ETV
attr interpolationmode none
attr source packetSentToUpper
attr title "packets passed up, vector(count)"
vector 82 SimpleBlackhole.bh.wlan[0].mac rcvdPkFromLl:vector(packetBytes) ETV
attr interpolationmode none
attr source packetReceivedFromLower
attr title "packets received from lower layer, vector(packetBytes)"
vector 83 SimpleBlackhole.bh.wlan[0].mac passedUpPk:vector(packetBytes) ETV
attr interpolationmode none
attr source packetSentToUpper
attr title "packets passed to higher layer, vector(packetBytes)"
vector 84 SimpleBlackhole.bh.udp packetReceived:vector(packetBytes) ETV
attr interpolationmode none
attr source packetReceived
attr title "packets received, vector(packetBytes)"
vector 85 SimpleBlackhole.bh.udp passedUpPk:vector(count) ETV
attr interpolationmode none
attr source packetSentToUpper
attr title "packets passed up, vector(count)"
vector 86 SimpleBlackhole.bh.udp packetSent:vector(packetBytes) ETV
attr interpolationmode none
attr source packetSent
attr title "packets sent, vector(packetBytes)"
vector 87 SimpleBlackhole.bh.ipv4.arp arpRequestSent:vector(packetBytes) ETV
attr source arpRequestSent
attr title "ARP request sent, vector(packetBytes)"
vector 88 SimpleBlackhole.bh.wlan[0].mac rcvdPkFromHl:vector(packetBytes) ETV
attr interpolationmode none
attr source packetReceivedFromUpper
attr title "packets received from higher layer, vector(packetBytes)"
vector 89 SimpleBlackhole.bh.wlan[0].mac.queue packetPushed:vector(packetBytes) ETV
attr interpolationmode none
attr title "packet pushed, vector(packetBytes)"
vector 90 SimpleBlackhole.bh.wlan[0].mac.queue queueLength:vector ETV
attr interpolationmode sample-hold
attr source "count(packetPushed) - count(packetPopped) - count(packetRemoved) - count(packetDropped)"
attr title "queue length, vector"
vector 91 SimpleBlackhole.bh.wlan[0].mac.queue packetPopped:vector(packetBytes) ETV
attr interpolationmode none
attr title "packet popped, vector(packetBytes)"
vector 92 SimpleBlackhole.bh.wlan[0].mac.queue queueingTime:vector ETV
attr interpolationmode none
attr source queueingTime(packetPopped)
attr title "queueing times, vector"
attr unit s
vector 93 SimpleBlackhole.bh.wlan[0].mac sentDownPk:vector(packetBytes) ETV
attr interpolationmode none
attr source packetSentToLower
attr title "packets sent to lower layer, vector(packetBytes)"
vector 94 SimpleBlackhole.host2.ipv4.arp arpReplySent:vector(packetBytes) ETV
attr source arpReplySent
attr title "ARP replies sent, vector(packetBytes)"
vector 95 SimpleBlackhole.receiver.wlan[0].mac rcvdPkFromLl:vector(packetBytes) ETV
attr interpolationmode none
attr source packetReceivedFromLower
attr title "packets received from lower layer, vector(packetBytes)"
vector 96 SimpleBlackhole.receiver.wlan[0].mac passedUpPk:vector(packetBytes) ETV
attr interpolationmode none
attr source packetSentToUpper
attr title "packets passed to higher layer, vector(packetBytes)"
vector 97 SimpleBlackhole.host1.wlan[0].mac packetDropNotAddressedToUs:vector(packetBytes) ETV
attr interpolationmode none
attr source packetDropReasonIsNotAddressedToUs(packetDropped)
attr title "packet drop: not addressed to us, vector(packetBytes)"
vector 98 SimpleBlackhole.host4.wlan[0].mac packetDropNotAddressedToUs:vector(packetBytes) ETV
attr interpolationmode none
attr source packetDropReasonIsNotAddressedToUs(packetDropped)
attr title "packet drop: not addressed to us, vector(packetBytes)"
vector 99 SimpleBlackhole.receiver.wlan[0].mac packetDropNotAddressedToUs:vector(packetBytes) ETV
attr interpolationmode none
attr source packetDropReasonIsNotAddressedToUs(packetDropped)
attr title "packet drop: not addressed to us, vector(packetBytes)"
vector 100 SimpleBlackhole.host3.udp packetSent:vector(packetBytes) ETV
attr interpolationmode none
attr source packetSent
attr title "packets sent, vector(packetBytes)"
vector 101 SimpleBlackhole.host3.wlan[0].mac rcvdPkFromHl:vector(packetBytes) ETV
attr interpolationmode none
attr source packetReceivedFromUpper
attr title "packets received from higher layer, vector(packetBytes)"
vector 102 SimpleBlackhole.host3.wlan[0].mac.queue packetPushed:vector(packetBytes) ETV
attr interpolationmode none
attr title "packet pushed, vector(packetBytes)"
vector 103 SimpleBlackhole.host3.wlan[0].mac.queue queueLength:vector ETV
attr interpolationmode sample-hold
attr source "count(packetPushed) - count(packetPopped) - count(packetRemoved) - count(packetDropped)"
attr title "queue length, vector"
vector 104 SimpleBlackhole.host3.wlan[0].mac.queue packetPopped:vector(packetBytes) ETV
attr interpolationmode none
attr title "packet popped, vector(packetBytes)"
vector 105 SimpleBlackhole.host3.wlan[0].mac.queue queueingTime:vector ETV
attr interpolationmode none
attr source queueingTime(packetPopped)
attr title "queueing times, vector"
attr unit s
vector 106 SimpleBlackhole.host3.wlan[0].mac sentDownPk:vector(packetBytes) ETV
attr interpolationmode none
attr source packetSentToLower
attr title "packets sent to lower layer, vector(packetBytes)"
vector 107 SimpleBlackhole.host1.udp packetSent:vector(packetBytes) ETV
attr interpolationmode none
attr source packetSent
attr title "packets sent, vector(packetBytes)"
vector 108 SimpleBlackhole.host1.wlan[0].mac rcvdPkFromHl:vector(packetBytes) ETV
attr interpolationmode none
attr source packetReceivedFromUpper
attr title "packets received from higher layer, vector(packetBytes)"
vector 109 SimpleBlackhole.host1.wlan[0].mac.queue packetPushed:vector(packetBytes) ETV
attr interpolationmode none
attr title "packet pushed, vector(packetBytes)"
vector 110 SimpleBlackhole.host1.wlan[0].mac.queue queueLength:vector ETV
attr interpolationmode sample-hold
attr source "count(packetPushed) - count(packetPopped) - count(packetRemoved) - count(packetDropped)"
attr title "queue length, vector"
vector 111 SimpleBlackhole.host1.wlan[0].mac.queue packetPopped:vector(packetBytes) ETV
attr interpolationmode none
attr title "packet popped, vector(packetBytes)"
vector 112 SimpleBlackhole.host1.wlan[0].mac.queue queueingTime:vector ETV
attr interpolationmode none
attr source queueingTime(packetPopped)
attr title "queueing times, vector"
attr unit s
vector 113 SimpleBlackhole.host1.wlan[0].mac sentDownPk:vector(packetBytes) ETV
attr interpolationmode none
attr source packetSentToLower
attr title "packets sent to lower layer, vector(packetBytes)"
vector 114 SimpleBlackhole.receiver.udp packetReceived:vector(packetBytes) ETV
attr interpolationmode none
attr source packetReceived
attr title "packets received, vector(packetBytes)"
vector 115 SimpleBlackhole.receiver.udp passedUpPk:vector(count) ETV
attr interpolationmode none
attr source packetSentToUpper
attr title "packets passed up, vector(count)"
vector 116 SimpleBlackhole.receiver.udp packetSent:vector(packetBytes) ETV
attr interpolationmode none
attr source packetSent
attr title "packets sent, vector(packetBytes)"
vector 117 SimpleBlackhole.receiver.ipv4.arp arpRequestSent:vector(packetBytes) ETV
attr source arpRequestSent
attr title "ARP request sent, vector(packetBytes)"
vector 118 SimpleBlackhole.receiver.wlan[0].mac rcvdPkFromHl:vector(packetBytes) ETV
attr interpolationmode none
attr source packetReceivedFromUpper
attr title "packets received from higher layer, vector(packetBytes)"
vector 119 SimpleBlackhole.receiver.wlan[0].mac.queue packetPushed:vector(packetBytes) ETV
attr interpolationmode none
attr title "packet pushed, vector(packetBytes)"
vector 120 SimpleBlackhole.receiver.wlan[0].mac.queue queueLength:vector ETV
attr interpolationmode sample-hold
attr source "count(packetPushed) - count(packetPopped) - count(packetRemoved) - count(packetDropped)"
attr title "queue length, vector"
vector 121 SimpleBlackhole.receiver.wlan[0].mac.queue packetPopped:vector(packetBytes) ETV
attr interpolationmode none
attr title "packet popped, vector(packetBytes)"
vector 122 SimpleBlackhole.receiver.wlan[0].mac.queue queueingTime:vector ETV
attr interpolationmode none
attr source queueingTime(packetPopped)
attr title "queueing times, vector"
attr unit s
vector 123 SimpleBlackhole.receiver.wlan[0].mac sentDownPk:vector(packetBytes) ETV
attr interpolationmode none
attr source packetSentToLower
attr title "packets sent to lower layer, vector(packetBytes)"
vector 124 SimpleBlackhole.host1.ipv4.arp arpReplySent:vector(packetBytes) ETV
attr source arpReplySent
attr title "ARP replies sent, vector(packetBytes)"
vector 125 SimpleBlackhole.bh.wlan[0].mac packetDropNotAddressedToUs:vector(packetBytes) ETV
attr interpolationmode none
attr source packetDropReasonIsNotAddressedToUs(packetDropped)
attr title "packet drop: not addressed to us, vector(packetBytes)"
vector 126 SimpleBlackhole.host1.ipv4.arp arpRequestSent:vector(packetBytes) ETV
attr source arpRequestSent
attr title "ARP request sent, vector(packetBytes)"
vector 127 SimpleBlackhole.host2.ipv4.arp arpRequestSent:vector(packetBytes) ETV
attr source arpRequestSent
attr title "ARP request sent, vector(packetBytes)"
vector 128 SimpleBlackhole.sender.ipv4.arp arpReplySent:vector(packetBytes) ETV
attr source arpReplySent
attr title "ARP replies sent, vector(packetBytes)"
vector 129 SimpleBlackhole.receiver.app[0] packetReceived:vector(packetBytes) ETV
attr interpolationmode none
attr source packetReceived
attr title "packets received, vector(packetBytes)"
vector 130 SimpleBlackhole.receiver.app[0] throughput:vector ETV
attr source throughput(packetReceived)
attr title "throughput, vector"
attr unit bps
vector 131 SimpleBlackhole.receiver.app[0] endToEndDelay:vector ETV
attr interpolationmode none
attr source dataAge(packetReceived)
attr title "end-to-end delay, vector"
attr unit s
vector 132 SimpleBlackhole.receiver.app[0] rcvdPkSeqNo:vector ETV
attr interpolationmode none
attr source appPkSeqNo(packetReceived)
attr title "received packet sequence number, vector"
vector 133 SimpleBlackhole.sender.app[0] throughput:vector ETV
attr source throughput(packetReceived)
attr title "throughput, vector"
attr unit bps
0	0	0	0
0	0	0	0
0	0	0	4
1	0	0	0
1	0	0	0
1	0	0	4
2	0	0	0
2	0	0	0
2	0	0	4
3	0	0	0
3	0	0	0
3	0	0	4
4	0	0	0
4	0	0	0
4	0	0	4
5	0	0	0
5	0	0	0
5	0	0	4
6	0	0	0
6	0	0	0
6	0	0	4
7	0	0	0
7	0	0	0
7	0	0	4
8	0	0	1
8	61	0.006888942049	3
8	69	0.007236942049	1
8	111	0.007489733011	3
8	135	0.007741733011	2
8	177	0.007882543334	1
8	216	0.0081353914	3
8	232	0.0083873914	1
8	327	0.327362916128	3
8	335	0.327710916128	1
8	390	0.328874978317	3
8	418	0.329222978317	1
8	609	0.337008601584	3
8	625	0.337260601584	1
8	662	0.339515229387	3
8	679	0.339767229387	1
8	709	0.340020220919	3
8	723	0.340352220919	1
8	755	0.342653212451	3
8	775	0.344953212451	1
8	845	1.002300991532	3
8	861	1.004600991532	1
8	925	2.002300991532	3
8	941	2.004600991532	1
8	1005	3.002300991532	3
8	1021	3.004600991532	1
8	1098	4.002300991532	3
8	1114	4.004600991532	1
8	1178	5.002300991532	3
8	1194	5.004600991532	1
8	1264	6.002300991532	3
8	1281	6.004600991532	1
8	1345	7.002300991532	3
8	1361	7.004600991532	1
8	1427	8.002300991532	3
8	1444	8.004600991532	1
8	1508	9.002300991532	3
8	1524	9.004600991532	1
8	1590	10.002300991532	3
8	1607	10.004600991532	1
8	1671	11.002300991532	3
8	1687	11.004600991532	1
8	1753	12.002300991532	3
8	1770	12.004600991532	1
8	1834	13.002300991532	3
8	1850	13.004600991532	1
8	1916	14.002300991532	3
8	1933	14.004600991532	1
8	1997	15.002300991532	3
8	2013	15.004600991532	1
8	2080	16.002300991532	3
8	2097	16.004600991532	1
8	2161	17.002300991532	3
8	2177	17.004600991532	1
8	2243	18.002300991532	3
8	2260	18.004600991532	1
8	2336	19.002300991532	3
8	2352	19.004600991532	1
8	2416	20.002300991532	3
8	2433	20.004600991532	1
8	2503	21.002300991532	3
8	2519	21.004600991532	1
8	2583	22.002300991532	3
8	2600	22.004600991532	1
8	2666	23.002300991532	3
8	2682	23.004600991532	1
8	2746	24.002300991532	3
8	2763	24.004600991532	1
8	2829	25.002300991532	3
8	2845	25.004600991532	1
8	2909	26.002300991532	3
8	2926	26.004600991532	1
8	2992	27.002300991532	3
8	3008	27.004600991532	1
8	3072	28.002300991532	3
8	3089	28.004600991532	1
8	3155	29.002300991532	3
8	3171	29.004600991532	1
8	3235	30.002300991532	3
8	3252	30.004600991532	1
8	3318	31.002300991532	3
8	3334	31.004600991532	1
8	3398	32.002300991532	3
8	3415	32.004600991532	1
8	3481	33.002300991532	3
8	3497	33.004600991532	1
8	3561	34.002300991532	3
8	3578	34.004600991532	1
8	3644	35.002300991532	3
8	3660	35.004600991532	1
8	3724	36.002300991532	3
8	3741	36.004600991532	1
8	3807	37.002300991532	3
8	3823	37.004600991532	1
8	3887	38.002300991532	3
8	3904	38.004600991532	1
8	3970	39.002300991532	3
8	3986	39.004600991532	1
8	4050	40.002300991532	3
8	4067	40.004600991532	1
8	4133	41.002300991532	3
8	4149	41.004600991532	1
8	4213	42.002300991532	3
8	4230	42.004600991532	1
8	4296	43.002300991532	3
8	4312	43.004600991532	1
8	4376	44.002300991532	3
8	4393	44.004600991532	1
8	4459	45.002300991532	3
8	4475	45.004600991532	1
8	4539	46.002300991532	3
8	4556	46.004600991532	1
8	4622	47.002300991532	3
8	4638	47.004600991532	1
8	4702	48.002300991532	3
8	4719	48.004600991532	1
8	4785	49.002300991532	3
8	4801	49.004600991532	1
8	4865	50.002300991532	3
8	4882	50.004600991532	1
8	4948	51.002300991532	3
8	4964	51.004600991532	1
8	5028	52.002300991532	3
8	5045	52.004600991532	1
8	5111	53.002300991532	3
8	5127	53.004600991532	1
8	5191	54.002300991532	3
8	5208	54.004600991532	1
8	5274	55.002300991532	3
8	5290	55.004600991532	1
8	5354	56.002300991532	3
8	5371	56.004600991532	1
8	5437	57.002300991532	3
8	5453	57.004600991532	1
8	5517	58.002300991532	3
8	5534	58.004600991532	1
8	5600	59.002300991532	3
8	5616	59.004600991532	1
8	5680	60.002300991532	3
8	5697	60.004600991532	1
8	5763	61.002300991532	3
8	5779	61.004600991532	1
8	5843	62.002300991532	3
8	5860	62.004600991532	1
8	5926	63.002300991532	3
8	5942	63.004600991532	1
8	6006	64.002300991532	3
8	6023	64.004600991532	1
8	6089	65.002300991532	3
8	6105	65.004600991532	1
8	6169	66.002300991532	3
8	6186	66.004600991532	1
8	6252	67.002300991532	3
8	6268	67.004600991532	1
8	6332	68.002300991532	3
8	6349	68.004600991532	1
8	6415	69.002300991532	3
8	6431	69.004600991532	1
8	6495	70.002300991532	3
8	6512	70.004600991532	1
8	6578	71.002300991532	3
8	6594	71.004600991532	1
8	6658	72.002300991532	3
8	6675	72.004600991532	1
8	6741	73.002300991532	3
8	6757	73.004600991532	1
8	6821	74.002300991532	3
8	6838	74.004600991532	1
8	6904	75.002300991532	3
8	6920	75.004600991532	1
8	6984	76.002300991532	3
8	7001	76.004600991532	1
8	7067	77.002300991532	3
8	7083	77.004600991532	1
8	7147	78.002300991532	3
8	7164	78.004600991532	1
8	7230	79.002300991532	3
8	7246	79.004600991532	1
8	7310	80.002300991532	3
8	7327	80.004600991532	1
8	7393	81.002300991532	3
8	7409	81.004600991532	1
8	7473	82.002300991532	3
8	7490	82.004600991532	1
8	7556	83.002300991532	3
8	7572	83.004600991532	1
8	7636	84.002300991532	3
8	7653	84.004600991532	1
8	7719	85.002300991532	3
8	7735	85.004600991532	1
8	7799	86.002300991532	3
8	7816	86.004600991532	1
8	7882	87.002300991532	3
8	7898	87.004600991532	1
8	7962	88.002300991532	3
8	7979	88.004600991532	1
8	8045	89.002300991532	3
8	8061	89.004600991532	1
8	8125	90.002300991532	3
8	8142	90.004600991532	1
8	8208	91.002300991532	3
8	8224	91.004600991532	1
8	8288	92.002300991532	3
8	8305	92.004600991532	1
8	8371	93.002300991532	3
8	8387	93.004600991532	1
8	8451	94.002300991532	3
8	8468	94.004600991532	1
8	8534	95.002300991532	3
8	8550	95.004600991532	1
8	8614	96.002300991532	3
8	8631	96.004600991532	1
8	8697	97.002300991532	3
8	8713	97.004600991532	1
8	8777	98.002300991532	3
8	8794	98.004600991532	1
8	8860	99.002300991532	3
8	8876	99.004600991532	1
9	0	0	1
9	32	0.002964223082	2
9	40	0.003312223082	1
9	298	0.324289728099	2
9	306	0.324637728099	1
9	683	0.339767229387	2
9	693	0.340019229387	1
9	729	0.340352220919	2
9	739	0.342652220919	1
9	821	1	2
9	829	1.0023	1
9	901	2	2
9	909	2.0023	1
9	981	3	2
9	989	3.0023	1
9	1074	4	2
9	1082	4.0023	1
9	1154	5	2
9	1162	5.0023	1
9	1239	6	2
9	1247	6.0023	1
9	1321	7	2
9	1329	7.0023	1
9	1402	8	2
9	1410	8.0023	1
9	1484	9	2
9	1492	9.0023	1
9	1565	10	2
9	1573	10.0023	1
9	1647	11	2
9	1655	11.0023	1
9	1728	12	2
9	1736	12.0023	1
9	1810	13	2
9	1818	13.0023	1
9	1891	14	2
9	1899	14.0023	1
9	1973	15	2
9	1981	15.0023	1
9	2055	16	2
9	2063	16.0023	1
9	2137	17	2
9	2145	17.0023	1
9	2218	18	2
9	2226	18.0023	1
9	2312	19	2
9	2320	19.0023	1
9	2392	20	2
9	2400	20.0023	1
9	2478	21	2
9	2486	21.0023	1
9	2559	22	2
9	2567	22.0023	1
9	2641	23	2
9	2649	23.0023	1
9	2722	24	2
9	2730	24.0023	1
9	2804	25	2
9	2812	25.0023	1
9	2885	26	2
9	2893	26.0023	1
9	2967	27	2
9	2975	27.0023	1
9	3048	28	2
9	3056	28.0023	1
9	3130	29	2
9	3138	29.0023	1
9	3211	30	2
9	3219	30.0023	1
9	3293	31	2
9	3301	31.0023	1
9	3374	32	2
9	3382	32.0023	1
9	3456	33	2
9	3464	33.0023	1
9	3537	34	2
9	3545	34.0023	1
9	3619	35	2
9	3627	35.0023	1
9	3700	36	2
9	3708	36.0023	1
9	3782	37	2
9	3790	37.0023	1
9	3863	38	2
9	3871	38.0023	1
9	3945	39	2
9	3953	39.0023	1
9	4026	40	2
9	4034	40.0023	1
9	4108	41	2
9	4116	41.0023	1
9	4189	42	2
9	4197	42.0023	1
9	4271	43	2
9	4279	43.0023	1
9	4352	44	2
9	4360	44.0023	1
9	4434	45	2
9	4442	45.0023	1
9	4515	46	2
9	4523	46.0023	1
9	4597	47	2
9	4605	47.0023	1
9	4678	48	2
9	4686	48.0023	1
9	4760	49	2
9	4768	49.0023	1
9	4841	50	2
9	4849	50.0023	1
9	4923	51	2
9	4931	51.0023	1
9	5004	52	2
9	5012	52.0023	1
9	5086	53	2
9	5094	53.0023	1
9	5167	54	2
9	5175	54.0023	1
9	5249	55	2
9	5257	55.0023	1
9	5330	56	2
9	5338	56.0023	1
9	5412	57	2
9	5420	57.0023	1
9	5493	58	2
9	5501	58.0023	1
9	5575	59	2
9	5583	59.0023	1
9	5656	60	2
9	5664	60.0023	1
9	5738	61	2
9	5746	61.0023	1
9	5819	62	2
9	5827	62.0023	1
9	5901	63	2
9	5909	63.0023	1
9	5982	64	2
9	5990	64.0023	1
9	6064	65	2
9	6072	65.0023	1
9	6145	66	2
9	6153	66.0023	1
9	6227	67	2
9	6235	67.0023	1
9	6308	68	2
9	6316	68.0023	1
9	6390	69	2
9	6398	69.0023	1
9	6471	70	2
9	6479	70.0023	1
9	6553	71	2
9	6561	71.0023	1
9	6634	72	2
9	6642	72.0023	1
9	6716	73	2
9	6724	73.0023	1
9	6797	74	2
9	6805	74.0023	1
9	6879	75	2
9	6887	75.0023	1
9	6960	76	2
9	6968	76.0023	1
9	7042	77	2
9	7050	77.0023	1
9	7123	78	2
9	7131	78.0023	1
9	7205	79	2
9	7213	79.0023	1
9	7286	80	2
9	7294	80.0023	1
9	7368	81	2
9	7376	81.0023	1
9	7449	82	2
9	7457	82.0023	1
9	7531	83	2
9	7539	83.0023	1
9	7612	84	2
9	7620	84.0023	1
9	7694	85	2
9	7702	85.0023	1
9	7775	86	2
9	7783	86.0023	1
9	7857	87	2
9	7865	87.0023	1
9	7938	88	2
9	7946	88.0023	1
9	8020	89	2
9	8028	89.0023	1
9	8101	90	2
9	8109	90.0023	1
9	8183	91	2
9	8191	91.0023	1
9	8264	92	2
9	8272	92.0023	1
9	8346	93	2
9	8354	93.0023	1
9	8427	94	2
9	8435	94.0023	1
9	8509	95	2
9	8517	95.0023	1
9	8590	96	2
9	8598	96.0023	1
9	8672	97	2
9	8680	97.0023	1
9	8753	98	2
9	8761	98.0023	1
9	8835	99	2
9	8843	99.0023	1
9	8916	100	2
10	0	0	1
10	183	0.007882986739	3
10	207	0.008134986739	1
10	239	0.008387834805	3
10	253	0.008719834805	1
10	428	0.329223421722	3
10	442	0.329555421722	1
10	485	0.332341064401	3
10	497	0.332689064401	1
10	533	0.332941871875	3
10	546	0.333193871875	1
10	584	0.336756149924	3
10	596	0.337008149924	1
10	629	0.337260869186	3
10	642	0.337592869186	1
10	779	0.344953480053	3
10	790	0.347253480053	1
10	865	1.004601259134	3
10	875	1.006901259134	1
10	945	2.004601259134	3
10	955	2.006901259134	1
10	1025	3.004601259134	3
10	1035	3.006901259134	1
10	1118	4.004601259134	3
10	1128	4.006901259134	1
10	1198	5.004601259134	3
10	1208	5.006901259134	1
10	1285	6.004601259134	3
10	1295	6.006901259134	1
10	1365	7.004601259134	3
10	1375	7.006901259134	1
10	1448	8.004601259134	3
10	1458	8.006901259134	1
10	1528	9.004601259134	3
10	1538	9.006901259134	1
10	1611	10.004601259134	3
10	1621	10.006901259134	1
10	1691	11.004601259134	3
10	1701	11.006901259134	1
10	1774	12.004601259134	3
10	1784	12.006901259134	1
10	1854	13.004601259134	3
10	1864	13.006901259134	1
10	1937	14.004601259134	3
10	1947	14.006901259134	1
10	2017	15.004601259134	3
10	2027	15.006901259134	1
10	2101	16.004601259134	3
10	2111	16.006901259134	1
10	2181	17.004601259134	3
10	2191	17.006901259134	1
10	2264	18.004601259134	3
10	2274	18.006901259134	1
10	2356	19.004601259134	3
10	2366	19.006901259134	1
10	2437	20.004601259134	3
10	2447	20.006901259134	1
10	2523	21.004601259134	3
10	2533	21.006901259134	1
10	2604	22.004601259134	3
10	2614	22.006901259134	1
10	2686	23.004601259134	3
10	2696	23.006901259134	1
10	2767	24.004601259134	3
10	2777	24.006901259134	1
10	2849	25.004601259134	3
10	2859	25.006901259134	1
10	2930	26.004601259134	3
10	2940	26.006901259134	1
10	3012	27.004601259134	3
10	3022	27.006901259134	1
10	3093	28.004601259134	3
10	3103	28.006901259134	1
10	3175	29.004601259134	3
10	3185	29.006901259134	1
10	3256	30.004601259134	3
10	3266	30.006901259134	1
10	3338	31.004601259134	3
10	3348	31.006901259134	1
10	3419	32.004601259134	3
10	3429	32.006901259134	1
10	3501	33.004601259134	3
10	3511	33.006901259134	1
10	3582	34.004601259134	3
10	3592	34.006901259134	1
10	3664	35.004601259134	3
10	3674	35.006901259134	1
10	3745	36.004601259134	3
10	3755	36.006901259134	1
10	3827	37.004601259134	3
10	3837	37.006901259134	1
10	3908	38.004601259134	3
10	3918	38.006901259134	1
10	3990	39.004601259134	3
10	4000	39.006901259134	1
10	4071	40.004601259134	3
10	4081	40.006901259134	1
10	4153	41.004601259134	3
10	4163	41.006901259134	1
10	4234	42.004601259134	3
10	4244	42.006901259134	1
10	4316	43.004601259134	3
10	4326	43.006901259134	1
10	4397	44.004601259134	3
10	4407	44.006901259134	1
10	4479	45.004601259134	3
10	4489	45.006901259134	1
10	4560	46.004601259134	3
10	4570	46.006901259134	1
10	4642	47.004601259134	3
10	4652	47.006901259134	1
10	4723	48.004601259134	3
10	4733	48.006901259134	1
10	4805	49.004601259134	3
10	4815	49.006901259134	1
10	4886	50.004601259134	3
10	4896	50.006901259134	1
10	4968	51.004601259134	3
10	4978	51.006901259134	1
10	5049	52.004601259134	3
10	5059	52.006901259134	1
10	5131	53.004601259134	3
10	5141	53.006901259134	1
10	5212	54.004601259134	3
10	5222	54.006901259134	1
10	5294	55.004601259134	3
10	5304	55.006901259134	1
10	5375	56.004601259134	3
10	5385	56.006901259134	1
10	5457	57.004601259134	3
10	5467	57.006901259134	1
10	5538	58.004601259134	3
10	5548	58.006901259134	1
10	5620	59.004601259134	3
10	5630	59.006901259134	1
10	5701	60.004601259134	3
10	5711	60.006901259134	1
10	5783	61.004601259134	3
10	5793	61.006901259134	1
10	5864	62.004601259134	3
10	5874	62.006901259134	1
10	5946	63.004601259134	3
10	5956	63.006901259134	1
10	6027	64.004601259134	3
10	6037	64.006901259134	1
10	6109	65.004601259134	3
10	6119	65.006901259134	1
10	6190	66.004601259134	3
10	6200	66.006901259134	1
10	6272	67.004601259134	3
10	6282	67.006901259134	1
10	6353	68.004601259134	3
10	6363	68.006901259134	1
10	6435	69.004601259134	3
10	6445	69.006901259134	1
10	6516	70.004601259134	3
10	6526	70.006901259134	1
10	6598	71.004601259134	3
10	6608	71.006901259134	1
10	6679	72.004601259134	3
10	6689	72.006901259134	1
10	6761	73.004601259134	3
10	6771	73.006901259134	1
10	6842	74.004601259134	3
10	6852	74.006901259134	1
10	6924	75.004601259134	3
10	6934	75.006901259134	1
10	7005	76.004601259134	3
10	7015	76.006901259134	1
10	7087	77.004601259134	3
10	7097	77.006901259134	1
10	7168	78.004601259134	3
10	7178	78.006901259134	1
10	7250	79.004601259134	3
10	7260	79.006901259134	1
10	7331	80.004601259134	3
10	7341	80.006901259134	1
10	7413	81.004601259134	3
10	7423	81.006901259134	1
10	7494	82.004601259134	3
10	7504	82.006901259134	1
10	7576	83.004601259134	3
10	7586	83.006901259134	1
10	7657	84.004601259134	3
10	7667	84.006901259134	1
10	7739	85.004601259134	3
10	7749	85.006901259134	1
10	7820	86.004601259134	3
10	7830	86.006901259134	1
10	7902	87.004601259134	3
10	7912	87.006901259134	1
10	7983	88.004601259134	3
10	7993	88.006901259134	1
10	8065	89.004601259134	3
10	8075	89.006901259134	1
10	8146	90.004601259134	3
10	8156	90.006901259134	1
10	8228	91.004601259134	3
10	8238	91.006901259134	1
10	8309	92.004601259134	3
10	8319	92.006901259134	1
10	8391	93.004601259134	3
10	8401	93.006901259134	1
10	8472	94.004601259134	3
10	8482	94.006901259134	1
10	8554	95.004601259134	3
10	8564	95.006901259134	1
10	8635	96.004601259134	3
10	8645	96.006901259134	1
10	8717	97.004601259134	3
10	8727	97.006901259134	1
10	8798	98.004601259134	3
10	8808	98.006901259134	1
10	8880	99.004601259134	3
10	8890	99.006901259134	1
11	0	0	1
11	505	0.332689064401	2
11	522	0.332941064401	1
11	550	0.333193871875	2
11	564	0.333525871875	1
12	0	0	1
12	127	0.007534407199	3
12	157	0.007882407199	1
12	179	0.00788288035	3
12	196	0.00813488035	1
12	210	0.008135255265	3
12	221	0.008387255265	1
12	235	0.008387728416	3
12	244	0.008719728416	1
12	386	0.328874842182	3
12	394	0.329222842182	1
12	424	0.329223315333	3
12	433	0.329555315333	1
12	513	0.332689468138	3
12	523	0.332941468138	1
12	555	0.333194275612	3
12	565	0.333526275612	1
12	604	0.337008465449	3
12	614	0.337260465449	1
12	658	0.339515093252	3
12	667	0.339767093252	1
12	704	0.340020084784	3
12	715	0.340352084784	1
12	750	0.342653076316	3
12	764	0.344953076316	1
12	840	1.002300855397	3
12	850	1.004600855397	1
12	920	2.002300855397	3
12	930	2.004600855397	1
12	1000	3.002300855397	3
12	1010	3.004600855397	1
12	1093	4.002300855397	3
12	1103	4.004600855397	1
12	1173	5.002300855397	3
12	1183	5.004600855397	1
12	1259	6.002300855397	3
12	1270	6.004600855397	1
12	1340	7.002300855397	3
12	1350	7.004600855397	1
12	1422	8.002300855397	3
12	1433	8.004600855397	1
12	1503	9.002300855397	3
12	1513	9.004600855397	1
12	1585	10.002300855397	3
12	1596	10.004600855397	1
12	1666	11.002300855397	3
12	1676	11.004600855397	1
12	1748	12.002300855397	3
12	1759	12.004600855397	1
12	1829	13.002300855397	3
12	1839	13.004600855397	1
12	1911	14.002300855397	3
12	1922	14.004600855397	1
12	1992	15.002300855397	3
12	2002	15.004600855397	1
12	2075	16.002300855397	3
12	2086	16.004600855397	1
12	2156	17.002300855397	3
12	2166	17.004600855397	1
12	2238	18.002300855397	3
12	2249	18.004600855397	1
12	2331	19.002300855397	3
12	2341	19.004600855397	1
12	2411	20.002300855397	3
12	2422	20.004600855397	1
12	2498	21.002300855397	3
12	2508	21.004600855397	1
12	2578	22.002300855397	3
12	2589	22.004600855397	1
12	2661	23.002300855397	3
12	2671	23.004600855397	1
12	2741	24.002300855397	3
12	2752	24.004600855397	1
12	2824	25.002300855397	3
12	2834	25.004600855397	1
12	2904	26.002300855397	3
12	2915	26.004600855397	1
12	2987	27.002300855397	3
12	2997	27.004600855397	1
12	3067	28.002300855397	3
12	3078	28.004600855397	1
12	3150	29.002300855397	3
12	3160	29.004600855397	1
12	3230	30.002300855397	3
12	3241	30.004600855397	1
12	3313	31.002300855397	3
12	3323	31.004600855397	1
12	3393	32.002300855397	3
12	3404	32.004600855397	1
12	3476	33.002300855397	3
12	3486	33.004600855397	1
12	3556	34.002300855397	3
12	3567	34.004600855397	1
12	3639	35.002300855397	3
12	3649	35.004600855397	1
12	3719	36.002300855397	3
12	3730	36.004600855397	1
12	3802	37.002300855397	3
12	3812	37.004600855397	1
12	3882	38.002300855397	3
12	3893	38.004600855397	1
12	3965	39.002300855397	3
12	3975	39.004600855397	1
12	4045	40.002300855397	3
12	4056	40.004600855397	1
12	4128	41.002300855397	3
12	4138	41.004600855397	1
12	4208	42.002300855397	3
12	4219	42.004600855397	1
12	4291	43.002300855397	3
12	4301	43.004600855397	1
12	4371	44.002300855397	3
12	4382	44.004600855397	1
12	4454	45.002300855397	3
12	4464	45.004600855397	1
12	4534	46.002300855397	3
12	4545	46.004600855397	1
12	4617	47.002300855397	3
12	4627	47.004600855397	1
12	4697	48.002300855397	3
12	4708	48.004600855397	1
12	4780	49.002300855397	3
12	4790	49.004600855397	1
12	4860	50.002300855397	3
12	4871	50.004600855397	1
12	4943	51.002300855397	3
12	4953	51.004600855397	1
12	5023	52.002300855397	3
12	5034	52.004600855397	1
12	5106	53.002300855397	3
12	5116	53.004600855397	1
12	5186	54.002300855397	3
12	5197	54.004600855397	1
12	5269	55.002300855397	3
12	5279	55.004600855397	1
12	5349	56.002300855397	3
12	5360	56.004600855397	1
12	5432	57.002300855397	3
12	5442	57.004600855397	1
12	5512	58.002300855397	3
12	5523	58.004600855397	1
12	5595	59.002300855397	3
12	5605	59.004600855397	1
12	5675	60.002300855397	3
12	5686	60.004600855397	1
12	5758	61.002300855397	3
12	5768	61.004600855397	1
12	5838	62.002300855397	3
12	5849	62.004600855397	1
12	5921	63.002300855397	3
12	5931	63.004600855397	1
12	6001	64.002300855397	3
12	6012	64.004600855397	1
12	6084	65.002300855397	3
12	6094	65.004600855397	1
12	6164	66.002300855397	3
12	6175	66.004600855397	1
12	6247	67.002300855397	3
12	6257	67.004600855397	1
12	6327	68.002300855397	3
12	6338	68.004600855397	1
12	6410	69.002300855397	3
12	6420	69.004600855397	1
12	6490	70.002300855397	3
12	6501	70.004600855397	1
12	6573	71.002300855397	3
12	6583	71.004600855397	1
12	6653	72.002300855397	3
12	6664	72.004600855397	1
12	6736	73.002300855397	3
12	6746	73.004600855397	1
12	6816	74.002300855397	3
12	6827	74.004600855397	1
12	6899	75.002300855397	3
12	6909	75.004600855397	1
12	6979	76.002300855397	3
12	6990	76.004600855397	1
12	7062	77.002300855397	3
12	7072	77.004600855397	1
12	7142	78.002300855397	3
12	7153	78.004600855397	1
12	7225	79.002300855397	3
12	7235	79.004600855397	1
12	7305	80.002300855397	3
12	7316	80.004600855397	1
12	7388	81.002300855397	3
12	7398	81.004600855397	1
12	7468	82.002300855397	3
12	7479	82.004600855397	1
12	7551	83.002300855397	3
12	7561	83.004600855397	1
12	7631	84.002300855397	3
12	7642	84.004600855397	1
12	7714	85.002300855397	3
12	7724	85.004600855397	1
12	7794	86.002300855397	3
12	7805	86.004600855397	1
12	7877	87.002300855397	3
12	7887	87.004600855397	1
12	7957	88.002300855397	3
12	7968	88.004600855397	1
12	8040	89.002300855397	3
12	8050	89.004600855397	1
12	8120	90.002300855397	3
12	8131	90.004600855397	1
12	8203	91.002300855397	3
12	8213	91.004600855397	1
12	8283	92.002300855397	3
12	8294	92.004600855397	1
12	8366	93.002300855397	3
12	8376	93.004600855397	1
12	8446	94.002300855397	3
12	8457	94.004600855397	1
12	8529	95.002300855397	3
12	8539	95.004600855397	1
12	8609	96.002300855397	3
12	8620	96.004600855397	1
12	8692	97.002300855397	3
12	8702	97.004600855397	1
12	8772	98.002300855397	3
12	8783	98.004600855397	1
12	8855	99.002300855397	3
12	8865	99.004600855397	1
13	0	0	1
13	483	0.332340660664	2
13	491	0.332688660664	1
13	527	0.332941468138	2
13	543	0.333193468138	1
13	582	0.336755746187	2
13	590	0.337007746187	1
13	618	0.337260465449	2
13	636	0.337592465449	1
13	768	0.344953076316	2
13	787	0.347253076316	1
13	854	1.004600855397	2
13	872	1.006900855397	1
13	934	2.004600855397	2
13	952	2.006900855397	1
13	1014	3.004600855397	2
13	1032	3.006900855397	1
13	1107	4.004600855397	2
13	1125	4.006900855397	1
13	1187	5.004600855397	2
13	1205	5.006900855397	1
13	1274	6.004600855397	2
13	1292	6.006900855397	1
13	1354	7.004600855397	2
13	1372	7.006900855397	1
13	1437	8.004600855397	2
13	1455	8.006900855397	1
13	1517	9.004600855397	2
13	1535	9.006900855397	1
13	1600	10.004600855397	2
13	1618	10.006900855397	1
13	1680	11.004600855397	2
13	1698	11.006900855397	1
13	1763	12.004600855397	2
13	1781	12.006900855397	1
13	1843	13.004600855397	2
13	1861	13.006900855397	1
13	1926	14.004600855397	2
13	1944	14.006900855397	1
13	2006	15.004600855397	2
13	2024	15.006900855397	1
13	2090	16.004600855397	2
13	2108	16.006900855397	1
13	2170	17.004600855397	2
13	2188	17.006900855397	1
13	2253	18.004600855397	2
13	2271	18.006900855397	1
13	2345	19.004600855397	2
13	2363	19.006900855397	1
13	2426	20.004600855397	2
13	2444	20.006900855397	1
13	2512	21.004600855397	2
13	2530	21.006900855397	1
13	2593	22.004600855397	2
13	2611	22.006900855397	1
13	2675	23.004600855397	2
13	2693	23.006900855397	1
13	2756	24.004600855397	2
13	2774	24.006900855397	1
13	2838	25.004600855397	2
13	2856	25.006900855397	1
13	2919	26.004600855397	2
13	2937	26.006900855397	1
13	3001	27.004600855397	2
13	3019	27.006900855397	1
13	3082	28.004600855397	2
13	3100	28.006900855397	1
13	3164	29.004600855397	2
13	3182	29.006900855397	1
13	3245	30.004600855397	2
13	3263	30.006900855397	1
13	3327	31.004600855397	2
13	3345	31.006900855397	1
13	3408	32.004600855397	2
13	3426	32.006900855397	1
13	3490	33.004600855397	2
13	3508	33.006900855397	1
13	3571	34.004600855397	2
13	3589	34.006900855397	1
13	3653	35.004600855397	2
13	3671	35.006900855397	1
13	3734	36.004600855397	2
13	3752	36.006900855397	1
13	3816	37.004600855397	2
13	3834	37.006900855397	1
13	3897	38.004600855397	2
13	3915	38.006900855397	1
13	3979	39.004600855397	2
13	3997	39.006900855397	1
13	4060	40.004600855397	2
13	4078	40.006900855397	1
13	4142	41.004600855397	2
13	4160	41.006900855397	1
13	4223	42.004600855397	2
13	4241	42.006900855397	1
13	4305	43.004600855397	2
13	4323	43.006900855397	1
13	4386	44.004600855397	2
13	4404	44.006900855397	1
13	4468	45.004600855397	2
13	4486	45.006900855397	1
13	4549	46.004600855397	2
13	4567	46.006900855397	1
13	4631	47.004600855397	2
13	4649	47.006900855397	1
13	4712	48.004600855397	2
13	4730	48.006900855397	1
13	4794	49.004600855397	2
13	4812	49.006900855397	1
13	4875	50.004600855397	2
13	4893	50.006900855397	1
13	4957	51.004600855397	2
13	4975	51.006900855397	1
13	5038	52.004600855397	2
13	5056	52.006900855397	1
13	5120	53.004600855397	2
13	5138	53.006900855397	1
13	5201	54.004600855397	2
13	5219	54.006900855397	1
13	5283	55.004600855397	2
13	5301	55.006900855397	1
13	5364	56.004600855397	2
13	5382	56.006900855397	1
13	5446	57.004600855397	2
13	5464	57.006900855397	1
13	5527	58.004600855397	2
13	5545	58.006900855397	1
13	5609	59.004600855397	2
13	5627	59.006900855397	1
13	5690	60.004600855397	2
13	5708	60.006900855397	1
13	5772	61.004600855397	2
13	5790	61.006900855397	1
13	5853	62.004600855397	2
13	5871	62.006900855397	1
13	5935	63.004600855397	2
13	5953	63.006900855397	1
13	6016	64.004600855397	2
13	6034	64.006900855397	1
13	6098	65.004600855397	2
13	6116	65.006900855397	1
13	6179	66.004600855397	2
13	6197	66.006900855397	1
13	6261	67.004600855397	2
13	6279	67.006900855397	1
13	6342	68.004600855397	2
13	6360	68.006900855397	1
13	6424	69.004600855397	2
13	6442	69.006900855397	1
13	6505	70.004600855397	2
13	6523	70.006900855397	1
13	6587	71.004600855397	2
13	6605	71.006900855397	1
13	6668	72.004600855397	2
13	6686	72.006900855397	1
13	6750	73.004600855397	2
13	6768	73.006900855397	1
13	6831	74.004600855397	2
13	6849	74.006900855397	1
13	6913	75.004600855397	2
13	6931	75.006900855397	1
13	6994	76.004600855397	2
13	7012	76.006900855397	1
13	7076	77.004600855397	2
13	7094	77.006900855397	1
13	7157	78.004600855397	2
13	7175	78.006900855397	1
13	7239	79.004600855397	2
13	7257	79.006900855397	1
13	7320	80.004600855397	2
13	7338	80.006900855397	1
13	7402	81.004600855397	2
13	7420	81.006900855397	1
13	7483	82.004600855397	2
13	7501	82.006900855397	1
13	7565	83.004600855397	2
13	7583	83.006900855397	1
13	7646	84.004600855397	2
13	7664	84.006900855397	1
13	7728	85.004600855397	2
13	7746	85.006900855397	1
13	7809	86.004600855397	2
13	7827	86.006900855397	1
13	7891	87.004600855397	2
13	7909	87.006900855397	1
13	7972	88.004600855397	2
13	7990	88.006900855397	1
13	8054	89.004600855397	2
13	8072	89.006900855397	1
13	8135	90.004600855397	2
13	8153	90.006900855397	1
13	8217	91.004600855397	2
13	8235	91.006900855397	1
13	8298	92.004600855397	2
13	8316	92.006900855397	1
13	8380	93.004600855397	2
13	8398	93.006900855397	1
13	8461	94.004600855397	2
13	8479	94.006900855397	1
13	8543	95.004600855397	2
13	8561	95.006900855397	1
13	8624	96.004600855397	2
13	8642	96.006900855397	1
13	8706	97.004600855397	2
13	8724	97.006900855397	1
13	8787	98.004600855397	2
13	8805	98.006900855397	1
13	8869	99.004600855397	2
13	8887	99.006900855397	1
14	0	0	1
14	34	0.002964718848	3
14	46	0.003312718848	1
14	63	0.006889017335	3
14	83	0.007237017335	1
14	114	0.007489808297	3
14	142	0.007741808297	1
14	181	0.007882895634	3
14	199	0.008134895634	1
14	237	0.0083877437	3
14	246	0.0087197437	1
14	300	0.324290223865	3
14	312	0.324638223865	1
14	329	0.327362991414	3
14	349	0.327710991414	1
14	426	0.329223330617	3
14	435	0.329555330617	1
14	452	0.32982978648	3
14	460	0.33017778648	1
14	484	0.332341020295	3
14	492	0.332689020295	1
14	532	0.332941827769	3
14	544	0.333193827769	1
14	583	0.336756105818	3
14	591	0.337008105818	1
14	627	0.33726082508	3
14	637	0.33759282508	1
14	687	0.339767725153	3
14	696	0.340019725153	1
14	733	0.340352716685	3
14	742	0.342652716685	1
14	777	0.344953435947	3
14	788	0.347253435947	1
14	823	1.000000495766	3
14	832	1.002300495766	1
14	863	1.004601215028	3
14	873	1.006901215028	1
14	903	2.000000495766	3
14	912	2.002300495766	1
14	943	2.004601215028	3
14	953	2.006901215028	1
14	983	3.000000495766	3
14	992	3.002300495766	1
14	1023	3.004601215028	3
14	1033	3.006901215028	1
14	1076	4.000000495766	3
14	1085	4.002300495766	1
14	1116	4.004601215028	3
14	1126	4.006901215028	1
14	1156	5.000000495766	3
14	1165	5.002300495766	1
14	1196	5.004601215028	3
14	1206	5.006901215028	1
14	1241	6.000000495766	3
14	1251	6.002300495766	1
14	1283	6.004601215028	3
14	1293	6.006901215028	1
14	1323	7.000000495766	3
14	1332	7.002300495766	1
14	1363	7.004601215028	3
14	1373	7.006901215028	1
14	1404	8.000000495766	3
14	1414	8.002300495766	1
14	1446	8.004601215028	3
14	1456	8.006901215028	1
14	1486	9.000000495766	3
14	1495	9.002300495766	1
14	1526	9.004601215028	3
14	1536	9.006901215028	1
14	1567	10.000000495766	3
14	1577	10.002300495766	1
14	1609	10.004601215028	3
14	1619	10.006901215028	1
14	1649	11.000000495766	3
14	1658	11.002300495766	1
14	1689	11.004601215028	3
14	1699	11.006901215028	1
14	1730	12.000000495766	3
14	1740	12.002300495766	1
14	1772	12.004601215028	3
14	1782	12.006901215028	1
14	1812	13.000000495766	3
14	1821	13.002300495766	1
14	1852	13.004601215028	3
14	1862	13.006901215028	1
14	1893	14.000000495766	3
14	1903	14.002300495766	1
14	1935	14.004601215028	3
14	1945	14.006901215028	1
14	1975	15.000000495766	3
14	1984	15.002300495766	1
14	2015	15.004601215028	3
14	2025	15.006901215028	1
14	2057	16.000000495766	3
14	2067	16.002300495766	1
14	2099	16.004601215028	3
14	2109	16.006901215028	1
14	2139	17.000000495766	3
14	2148	17.002300495766	1
14	2179	17.004601215028	3
14	2189	17.006901215028	1
14	2220	18.000000495766	3
14	2230	18.002300495766	1
14	2262	18.004601215028	3
14	2272	18.006901215028	1
14	2314	19.000000495766	3
14	2323	19.002300495766	1
14	2354	19.004601215028	3
14	2364	19.006901215028	1
14	2394	20.000000495766	3
14	2403	20.002300495766	1
14	2435	20.004601215028	3
14	2445	20.006901215028	1
14	2480	21.000000495766	3
14	2490	21.002300495766	1
14	2521	21.004601215028	3
14	2531	21.006901215028	1
14	2561	22.000000495766	3
14	2570	22.002300495766	1
14	2602	22.004601215028	3
14	2612	22.006901215028	1
14	2643	23.000000495766	3
14	2653	23.002300495766	1
14	2684	23.004601215028	3
14	2694	23.006901215028	1
14	2724	24.000000495766	3
14	2733	24.002300495766	1
14	2765	24.004601215028	3
14	2775	24.006901215028	1
14	2806	25.000000495766	3
14	2816	25.002300495766	1
14	2847	25.004601215028	3
14	2857	25.006901215028	1
14	2887	26.000000495766	3
14	2896	26.002300495766	1
14	2928	26.004601215028	3
14	2938	26.006901215028	1
14	2969	27.000000495766	3
14	2979	27.002300495766	1
14	3010	27.004601215028	3
14	3020	27.006901215028	1
14	3050	28.000000495766	3
14	3059	28.002300495766	1
14	3091	28.004601215028	3
14	3101	28.006901215028	1
14	3132	29.000000495766	3
14	3142	29.002300495766	1
14	3173	29.004601215028	3
14	3183	29.006901215028	1
14	3213	30.000000495766	3
14	3222	30.002300495766	1
14	3254	30.004601215028	3
14	3264	30.006901215028	1
14	3295	31.000000495766	3
14	3305	31.002300495766	1
14	3336	31.004601215028	3
14	3346	31.006901215028	1
14	3376	32.000000495766	3
14	3385	32.002300495766	1
14	3417	32.004601215028	3
14	3427	32.006901215028	1
14	3458	33.000000495766	3
14	3468	33.002300495766	1
14	3499	33.004601215028	3
14	3509	33.006901215028	1
14	3539	34.000000495766	3
14	3548	34.002300495766	1
14	3580	34.004601215028	3
14	3590	34.006901215028	1
14	3621	35.000000495766	3
14	3631	35.002300495766	1
14	3662	35.004601215028	3
14	3672	35.006901215028	1
14	3702	36.000000495766	3
14	3711	36.002300495766	1
14	3743	36.004601215028	3
14	3753	36.006901215028	1
14	3784	37.000000495766	3
14	3794	37.002300495766	1
14	3825	37.004601215028	3
14	3835	37.006901215028	1
14	3865	38.000000495766	3
14	3874	38.002300495766	1
14	3906	38.004601215028	3
14	3916	38.006901215028	1
14	3947	39.000000495766	3
14	3957	39.002300495766	1
14	3988	39.004601215028	3
14	3998	39.006901215028	1
14	4028	40.000000495766	3
14	4037	40.002300495766	1
14	4069	40.004601215028	3
14	4079	40.006901215028	1
14	4110	41.000000495766	3
14	4120	41.002300495766	1
14	4151	41.004601215028	3
14	4161	41.006901215028	1
14	4191	42.000000495766	3
14	4200	42.002300495766	1
14	4232	42.004601215028	3
14	4242	42.006901215028	1
14	4273	43.000000495766	3
14	4283	43.002300495766	1
14	4314	43.004601215028	3
14	4324	43.006901215028	1
14	4354	44.000000495766	3
14	4363	44.002300495766	1
14	4395	44.004601215028	3
14	4405	44.006901215028	1
14	4436	45.000000495766	3
14	4446	45.002300495766	1
14	4477	45.004601215028	3
14	4487	45.006901215028	1
14	4517	46.000000495766	3
14	4526	46.002300495766	1
14	4558	46.004601215028	3
14	4568	46.006901215028	1
14	4599	47.000000495766	3
14	4609	47.002300495766	1
14	4640	47.004601215028	3
14	4650	47.006901215028	1
14	4680	48.000000495766	3
14	4689	48.002300495766	1
14	4721	48.004601215028	3
14	4731	48.006901215028	1
14	4762	49.000000495766	3
14	4772	49.002300495766	1
14	4803	49.004601215028	3
14	4813	49.006901215028	1
14	4843	50.000000495766	3
14	4852	50.002300495766	1
14	4884	50.004601215028	3
14	4894	50.006901215028	1
14	4925	51.000000495766	3
14	4935	51.002300495766	1
14	4966	51.004601215028	3
14	4976	51.006901215028	1
14	5006	52.000000495766	3
14	5015	52.002300495766	1
14	5047	52.004601215028	3
14	5057	52.006901215028	1
14	5088	53.000000495766	3
14	5098	53.002300495766	1
14	5129	53.004601215028	3
14	5139	53.006901215028	1
14	5169	54.000000495766	3
14	5178	54.002300495766	1
14	5210	54.004601215028	3
14	5220	54.006901215028	1
14	5251	55.000000495766	3
14	5261	55.002300495766	1
14	5292	55.004601215028	3
14	5302	55.006901215028	1
14	5332	56.000000495766	3
14	5341	56.002300495766	1
14	5373	56.004601215028	3
14	5383	56.006901215028	1
14	5414	57.000000495766	3
14	5424	57.002300495766	1
14	5455	57.004601215028	3
14	5465	57.006901215028	1
14	5495	58.000000495766	3
14	5504	58.002300495766	1
14	5536	58.004601215028	3
14	5546	58.006901215028	1
14	5577	59.000000495766	3
14	5587	59.002300495766	1
14	5618	59.004601215028	3
14	5628	59.006901215028	1
14	5658	60.000000495766	3
14	5667	60.002300495766	1
14	5699	60.004601215028	3
14	5709	60.006901215028	1
14	5740	61.000000495766	3
14	5750	61.002300495766	1
14	5781	61.004601215028	3
14	5791	61.006901215028	1
14	5821	62.000000495766	3
14	5830	62.002300495766	1
14	5862	62.004601215028	3
14	5872	62.006901215028	1
14	5903	63.000000495766	3
14	5913	63.002300495766	1
14	5944	63.004601215028	3
14	5954	63.006901215028	1
14	5984	64.000000495766	3
14	5993	64.002300495766	1
14	6025	64.004601215028	3
14	6035	64.006901215028	1
14	6066	65.000000495766	3
14	6076	65.002300495766	1
14	6107	65.004601215028	3
14	6117	65.006901215028	1
14	6147	66.000000495766	3
14	6156	66.002300495766	1
14	6188	66.004601215028	3
14	6198	66.006901215028	1
14	6229	67.000000495766	3
14	6239	67.002300495766	1
14	6270	67.004601215028	3
14	6280	67.006901215028	1
14	6310	68.000000495766	3
14	6319	68.002300495766	1
14	6351	68.004601215028	3
14	6361	68.006901215028	1
14	6392	69.000000495766	3
14	6402	69.002300495766	1
14	6433	69.004601215028	3
14	6443	69.006901215028	1
14	6473	70.000000495766	3
14	6482	70.002300495766	1
14	6514	70.004601215028	3
14	6524	70.006901215028	1
14	6555	71.000000495766	3
14	6565	71.002300495766	1
14	6596	71.004601215028	3
14	6606	71.006901215028	1
14	6636	72.000000495766	3
14	6645	72.002300495766	1
14	6677	72.004601215028	3
14	6687	72.006901215028	1
14	6718	73.000000495766	3
14	6728	73.002300495766	1
14	6759	73.004601215028	3
14	6769	73.006901215028	1
14	6799	74.000000495766	3
14	6808	74.002300495766	1
14	6840	74.004601215028	3
14	6850	74.006901215028	1
14	6881	75.000000495766	3
14	6891	75.002300495766	1
14	6922	75.004601215028	3
14	6932	75.006901215028	1
14	6962	76.000000495766	3
14	6971	76.002300495766	1
14	7003	76.004601215028	3
14	7013	76.006901215028	1
14	7044	77.000000495766	3
14	7054	77.002300495766	1
14	7085	77.004601215028	3
14	7095	77.006901215028	1
14	7125	78.000000495766	3
14	7134	78.002300495766	1
14	7166	78.004601215028	3
14	7176	78.006901215028	1
14	7207	79.000000495766	3
14	7217	79.002300495766	1
14	7248	79.004601215028	3
14	7258	79.006901215028	1
14	7288	80.000000495766	3
14	7297	80.002300495766	1
14	7329	80.004601215028	3
14	7339	80.006901215028	1
14	7370	81.000000495766	3
14	7380	81.002300495766	1
14	7411	81.004601215028	3
14	7421	81.006901215028	1
14	7451	82.000000495766	3
14	7460	82.002300495766	1
14	7492	82.004601215028	3
14	7502	82.006901215028	1
14	7533	83.000000495766	3
14	7543	83.002300495766	1
14	7574	83.004601215028	3
14	7584	83.006901215028	1
14	7614	84.000000495766	3
14	7623	84.002300495766	1
14	7655	84.004601215028	3
14	7665	84.006901215028	1
14	7696	85.000000495766	3
14	7706	85.002300495766	1
14	7737	85.004601215028	3
14	7747	85.006901215028	1
14	7777	86.000000495766	3
14	7786	86.002300495766	1
14	7818	86.004601215028	3
14	7828	86.006901215028	1
14	7859	87.000000495766	3
14	7869	87.002300495766	1
14	7900	87.004601215028	3
14	7910	87.006901215028	1
14	7940	88.000000495766	3
14	7949	88.002300495766	1
14	7981	88.004601215028	3
14	7991	88.006901215028	1
14	8022	89.000000495766	3
14	8032	89.002300495766	1
14	8063	89.004601215028	3
14	8073	89.006901215028	1
14	8103	90.000000495766	3
14	8112	90.002300495766	1
14	8144	90.004601215028	3
14	8154	90.006901215028	1
14	8185	91.000000495766	3
14	8195	91.002300495766	1
14	8226	91.004601215028	3
14	8236	91.006901215028	1
14	8266	92.000000495766	3
14	8275	92.002300495766	1
14	8307	92.004601215028	3
14	8317	92.006901215028	1
14	8348	93.000000495766	3
14	8358	93.002300495766	1
14	8389	93.004601215028	3
14	8399	93.006901215028	1
14	8429	94.000000495766	3
14	8438	94.002300495766	1
14	8470	94.004601215028	3
14	8480	94.006901215028	1
14	8511	95.000000495766	3
14	8521	95.002300495766	1
14	8552	95.004601215028	3
14	8562	95.006901215028	1
14	8592	96.000000495766	3
14	8601	96.002300495766	1
14	8633	96.004601215028	3
14	8643	96.006901215028	1
14	8674	97.000000495766	3
14	8684	97.002300495766	1
14	8715	97.004601215028	3
14	8725	97.006901215028	1
14	8755	98.000000495766	3
14	8764	98.002300495766	1
14	8796	98.004601215028	3
14	8806	98.006901215028	1
14	8837	99.000000495766	3
14	8847	99.002300495766	1
14	8878	99.004601215028	3
14	8888	99.006901215028	1
15	0	0	1
15	126	0.007534047568	2
15	156	0.007882047568	1
15	203	0.008134895634	2
15	220	0.008386895634	1
15	385	0.328874482551	2
15	393	0.329222482551	1
15	595	0.337008105818	2
15	613	0.337260105818	1
15	657	0.339514733621	2
15	666	0.339766733621	1
15	700	0.340019725153	2
15	714	0.340351725153	1
15	746	0.342652716685	2
15	763	0.344952716685	1
15	836	1.002300495766	2
15	849	1.004600495766	1
15	916	2.002300495766	2
15	929	2.004600495766	1
15	996	3.002300495766	2
15	1009	3.004600495766	1
15	1089	4.002300495766	2
15	1102	4.004600495766	1
15	1169	5.002300495766	2
15	1182	5.004600495766	1
15	1255	6.002300495766	2
15	1268	6.004600495766	1
15	1336	7.002300495766	2
15	1349	7.004600495766	1
15	1418	8.002300495766	2
15	1431	8.004600495766	1
15	1499	9.002300495766	2
15	1512	9.004600495766	1
15	1581	10.002300495766	2
15	1594	10.004600495766	1
15	1662	11.002300495766	2
15	1675	11.004600495766	1
15	1744	12.002300495766	2
15	1757	12.004600495766	1
15	1825	13.002300495766	2
15	1838	13.004600495766	1
15	1907	14.002300495766	2
15	1920	14.004600495766	1
15	1988	15.002300495766	2
15	2001	15.004600495766	1
15	2071	16.002300495766	2
15	2084	16.004600495766	1
15	2152	17.002300495766	2
15	2165	17.004600495766	1
15	2234	18.002300495766	2
15	2247	18.004600495766	1
15	2327	19.002300495766	2
15	2340	19.004600495766	1
15	2407	20.002300495766	2
15	2420	20.004600495766	1
15	2494	21.002300495766	2
15	2507	21.004600495766	1
15	2574	22.002300495766	2
15	2587	22.004600495766	1
15	2657	23.002300495766	2
15	2670	23.004600495766	1
15	2737	24.002300495766	2
15	2750	24.004600495766	1
15	2820	25.002300495766	2
15	2833	25.004600495766	1
15	2900	26.002300495766	2
15	2913	26.004600495766	1
15	2983	27.002300495766	2
15	2996	27.004600495766	1
15	3063	28.002300495766	2
15	3076	28.004600495766	1
15	3146	29.002300495766	2
15	3159	29.004600495766	1
15	3226	30.002300495766	2
15	3239	30.004600495766	1
15	3309	31.002300495766	2
15	3322	31.004600495766	1
15	3389	32.002300495766	2
15	3402	32.004600495766	1
15	3472	33.002300495766	2
15	3485	33.004600495766	1
15	3552	34.002300495766	2
15	3565	34.004600495766	1
15	3635	35.002300495766	2
15	3648	35.004600495766	1
15	3715	36.002300495766	2
15	3728	36.004600495766	1
15	3798	37.002300495766	2
15	3811	37.004600495766	1
15	3878	38.002300495766	2
15	3891	38.004600495766	1
15	3961	39.002300495766	2
15	3974	39.004600495766	1
15	4041	40.002300495766	2
15	4054	40.004600495766	1
15	4124	41.002300495766	2
15	4137	41.004600495766	1
15	4204	42.002300495766	2
15	4217	42.004600495766	1
15	4287	43.002300495766	2
15	4300	43.004600495766	1
15	4367	44.002300495766	2
15	4380	44.004600495766	1
15	4450	45.002300495766	2
15	4463	45.004600495766	1
15	4530	46.002300495766	2
15	4543	46.004600495766	1
15	4613	47.002300495766	2
15	4626	47.004600495766	1
15	4693	48.002300495766	2
15	4706	48.004600495766	1
15	4776	49.002300495766	2
15	4789	49.004600495766	1
15	4856	50.002300495766	2
15	4869	50.004600495766	1
15	4939	51.002300495766	2
15	4952	51.004600495766	1
15	5019	52.002300495766	2
15	5032	52.004600495766	1
15	5102	53.002300495766	2
15	5115	53.004600495766	1
15	5182	54.002300495766	2
15	5195	54.004600495766	1
15	5265	55.002300495766	2
15	5278	55.004600495766	1
15	5345	56.002300495766	2
15	5358	56.004600495766	1
15	5428	57.002300495766	2
15	5441	57.004600495766	1
15	5508	58.002300495766	2
15	5521	58.004600495766	1
15	5591	59.002300495766	2
15	5604	59.004600495766	1
15	5671	60.002300495766	2
15	5684	60.004600495766	1
15	5754	61.002300495766	2
15	5767	61.004600495766	1
15	5834	62.002300495766	2
15	5847	62.004600495766	1
15	5917	63.002300495766	2
15	5930	63.004600495766	1
15	5997	64.002300495766	2
15	6010	64.004600495766	1
15	6080	65.002300495766	2
15	6093	65.004600495766	1
15	6160	66.002300495766	2
15	6173	66.004600495766	1
15	6243	67.002300495766	2
15	6256	67.004600495766	1
15	6323	68.002300495766	2
15	6336	68.004600495766	1
15	6406	69.002300495766	2
15	6419	69.004600495766	1
15	6486	70.002300495766	2
15	6499	70.004600495766	1
15	6569	71.002300495766	2
15	6582	71.004600495766	1
15	6649	72.002300495766	2
15	6662	72.004600495766	1
15	6732	73.002300495766	2
15	6745	73.004600495766	1
15	6812	74.002300495766	2
15	6825	74.004600495766	1
15	6895	75.002300495766	2
15	6908	75.004600495766	1
15	6975	76.002300495766	2
15	6988	76.004600495766	1
15	7058	77.002300495766	2
15	7071	77.004600495766	1
15	7138	78.002300495766	2
15	7151	78.004600495766	1
15	7221	79.002300495766	2
15	7234	79.004600495766	1
15	7301	80.002300495766	2
15	7314	80.004600495766	1
15	7384	81.002300495766	2
15	7397	81.004600495766	1
15	7464	82.002300495766	2
15	7477	82.004600495766	1
15	7547	83.002300495766	2
15	7560	83.004600495766	1
15	7627	84.002300495766	2
15	7640	84.004600495766	1
15	7710	85.002300495766	2
15	7723	85.004600495766	1
15	7790	86.002300495766	2
15	7803	86.004600495766	1
15	7873	87.002300495766	2
15	7886	87.004600495766	1
15	7953	88.002300495766	2
15	7966	88.004600495766	1
15	8036	89.002300495766	2
15	8049	89.004600495766	1
15	8116	90.002300495766	2
15	8129	90.004600495766	1
15	8199	91.002300495766	2
15	8212	91.004600495766	1
15	8279	92.002300495766	2
15	8292	92.004600495766	1
15	8362	93.002300495766	2
15	8375	93.004600495766	1
15	8442	94.002300495766	2
15	8455	94.004600495766	1
15	8525	95.002300495766	2
15	8538	95.004600495766	1
15	8605	96.002300495766	2
15	8618	96.004600495766	1
15	8688	97.002300495766	2
15	8701	97.004600495766	1
15	8768	98.002300495766	2
15	8781	98.004600495766	1
15	8851	99.002300495766	2
15	8864	99.004600495766	1
16	0	0	1
16	128	0.007534471601	3
16	162	0.007882471601	1
16	212	0.008135319667	3
16	223	0.008387319667	1
16	387	0.328874906584	3
16	399	0.329222906584	1
16	453	0.329829807956	3
16	465	0.330177807956	1
16	486	0.332341069413	3
16	506	0.332689069413	1
16	515	0.332689579539	3
16	528	0.332941579539	1
16	534	0.332941876887	3
16	551	0.333193876887	1
16	557	0.333194387013	3
16	570	0.333526387013	1
16	585	0.336756154936	3
16	599	0.337008154936	1
16	605	0.337008529851	3
16	619	0.337260529851	1
16	630	0.337260874198	3
16	644	0.337592874198	1
16	659	0.339515157654	3
16	670	0.339767157654	1
16	706	0.340020149186	3
16	717	0.340352149186	1
16	752	0.342653140718	3
16	769	0.344953140718	1
16	780	0.344953485065	3
16	795	0.347253485065	1
16	842	1.002300919799	3
16	855	1.004600919799	1
16	866	1.004601264146	3
16	880	1.006901264146	1
16	922	2.002300919799	3
16	935	2.004600919799	1
16	946	2.004601264146	3
16	960	2.006901264146	1
16	1002	3.002300919799	3
16	1015	3.004600919799	1
16	1026	3.004601264146	3
16	1040	3.006901264146	1
16	1095	4.002300919799	3
16	1108	4.004600919799	1
16	1119	4.004601264146	3
16	1133	4.006901264146	1
16	1175	5.002300919799	3
16	1188	5.004600919799	1
16	1199	5.004601264146	3
16	1213	5.006901264146	1
16	1261	6.002300919799	3
16	1275	6.004600919799	1
16	1286	6.004601264146	3
16	1300	6.006901264146	1
16	1342	7.002300919799	3
16	1355	7.004600919799	1
16	1366	7.004601264146	3
16	1380	7.006901264146	1
16	1424	8.002300919799	3
16	1438	8.004600919799	1
16	1449	8.004601264146	3
16	1463	8.006901264146	1
16	1505	9.002300919799	3
16	1518	9.004600919799	1
16	1529	9.004601264146	3
16	1543	9.006901264146	1
16	1587	10.002300919799	3
16	1601	10.004600919799	1
16	1612	10.004601264146	3
16	1626	10.006901264146	1
16	1668	11.002300919799	3
16	1681	11.004600919799	1
16	1692	11.004601264146	3
16	1706	11.006901264146	1
16	1750	12.002300919799	3
16	1764	12.004600919799	1
16	1775	12.004601264146	3
16	1789	12.006901264146	1
16	1831	13.002300919799	3
16	1844	13.004600919799	1
16	1855	13.004601264146	3
16	1869	13.006901264146	1
16	1913	14.002300919799	3
16	1927	14.004600919799	1
16	1938	14.004601264146	3
16	1952	14.006901264146	1
16	1994	15.002300919799	3
16	2007	15.004600919799	1
16	2018	15.004601264146	3
16	2032	15.006901264146	1
16	2077	16.002300919799	3
16	2091	16.004600919799	1
16	2102	16.004601264146	3
16	2116	16.006901264146	1
16	2158	17.002300919799	3
16	2171	17.004600919799	1
16	2182	17.004601264146	3
16	2196	17.006901264146	1
16	2240	18.002300919799	3
16	2254	18.004600919799	1
16	2265	18.004601264146	3
16	2279	18.006901264146	1
16	2333	19.002300919799	3
16	2346	19.004600919799	1
16	2357	19.004601264146	3
16	2371	19.006901264146	1
16	2413	20.002300919799	3
16	2427	20.004600919799	1
16	2438	20.004601264146	3
16	2452	20.006901264146	1
16	2500	21.002300919799	3
16	2513	21.004600919799	1
16	2524	21.004601264146	3
16	2538	21.006901264146	1
16	2580	22.002300919799	3
16	2594	22.004600919799	1
16	2605	22.004601264146	3
16	2619	22.006901264146	1
16	2663	23.002300919799	3
16	2676	23.004600919799	1
16	2687	23.004601264146	3
16	2701	23.006901264146	1
16	2743	24.002300919799	3
16	2757	24.004600919799	1
16	2768	24.004601264146	3
16	2782	24.006901264146	1
16	2826	25.002300919799	3
16	2839	25.004600919799	1
16	2850	25.004601264146	3
16	2864	25.006901264146	1
16	2906	26.002300919799	3
16	2920	26.004600919799	1
16	2931	26.004601264146	3
16	2945	26.006901264146	1
16	2989	27.002300919799	3
16	3002	27.004600919799	1
16	3013	27.004601264146	3
16	3027	27.006901264146	1
16	3069	28.002300919799	3
16	3083	28.004600919799	1
16	3094	28.004601264146	3
16	3108	28.006901264146	1
16	3152	29.002300919799	3
16	3165	29.004600919799	1
16	3176	29.004601264146	3
16	3190	29.006901264146	1
16	3232	30.002300919799	3
16	3246	30.004600919799	1
16	3257	30.004601264146	3
16	3271	30.006901264146	1
16	3315	31.002300919799	3
16	3328	31.004600919799	1
16	3339	31.004601264146	3
16	3353	31.006901264146	1
16	3395	32.002300919799	3
16	3409	32.004600919799	1
16	3420	32.004601264146	3
16	3434	32.006901264146	1
16	3478	33.002300919799	3
16	3491	33.004600919799	1
16	3502	33.004601264146	3
16	3516	33.006901264146	1
16	3558	34.002300919799	3
16	3572	34.004600919799	1
16	3583	34.004601264146	3
16	3597	34.006901264146	1
16	3641	35.002300919799	3
16	3654	35.004600919799	1
16	3665	35.004601264146	3
16	3679	35.006901264146	1
16	3721	36.002300919799	3
16	3735	36.004600919799	1
16	3746	36.004601264146	3
16	3760	36.006901264146	1
16	3804	37.002300919799	3
16	3817	37.004600919799	1
16	3828	37.004601264146	3
16	3842	37.006901264146	1
16	3884	38.002300919799	3
16	3898	38.004600919799	1
16	3909	38.004601264146	3
16	3923	38.006901264146	1
16	3967	39.002300919799	3
16	3980	39.004600919799	1
16	3991	39.004601264146	3
16	4005	39.006901264146	1
16	4047	40.002300919799	3
16	4061	40.004600919799	1
16	4072	40.004601264146	3
16	4086	40.006901264146	1
16	4130	41.002300919799	3
16	4143	41.004600919799	1
16	4154	41.004601264146	3
16	4168	41.006901264146	1
16	4210	42.002300919799	3
16	4224	42.004600919799	1
16	4235	42.004601264146	3
16	4249	42.006901264146	1
16	4293	43.002300919799	3
16	4306	43.004600919799	1
16	4317	43.004601264146	3
16	4331	43.006901264146	1
16	4373	44.002300919799	3
16	4387	44.004600919799	1
16	4398	44.004601264146	3
16	4412	44.006901264146	1
16	4456	45.002300919799	3
16	4469	45.004600919799	1
16	4480	45.004601264146	3
16	4494	45.006901264146	1
16	4536	46.002300919799	3
16	4550	46.004600919799	1
16	4561	46.004601264146	3
16	4575	46.006901264146	1
16	4619	47.002300919799	3
16	4632	47.004600919799	1
16	4643	47.004601264146	3
16	4657	47.006901264146	1
16	4699	48.002300919799	3
16	4713	48.004600919799	1
16	4724	48.004601264146	3
16	4738	48.006901264146	1
16	4782	49.002300919799	3
16	4795	49.004600919799	1
16	4806	49.004601264146	3
16	4820	49.006901264146	1
16	4862	50.002300919799	3
16	4876	50.004600919799	1
16	4887	50.004601264146	3
16	4901	50.006901264146	1
16	4945	51.002300919799	3
16	4958	51.004600919799	1
16	4969	51.004601264146	3
16	4983	51.006901264146	1
16	5025	52.002300919799	3
16	5039	52.004600919799	1
16	5050	52.004601264146	3
16	5064	52.006901264146	1
16	5108	53.002300919799	3
16	5121	53.004600919799	1
16	5132	53.004601264146	3
16	5146	53.006901264146	1
16	5188	54.002300919799	3
16	5202	54.004600919799	1
16	5213	54.004601264146	3
16	5227	54.006901264146	1
16	5271	55.002300919799	3
16	5284	55.004600919799	1
16	5295	55.004601264146	3
16	5309	55.006901264146	1
16	5351	56.002300919799	3
16	5365	56.004600919799	1
16	5376	56.004601264146	3
16	5390	56.006901264146	1
16	5434	57.002300919799	3
16	5447	57.004600919799	1
16	5458	57.004601264146	3
16	5472	57.006901264146	1
16	5514	58.002300919799	3
16	5528	58.004600919799	1
16	5539	58.004601264146	3
16	5553	58.006901264146	1
16	5597	59.002300919799	3
16	5610	59.004600919799	1
16	5621	59.004601264146	3
16	5635	59.006901264146	1
16	5677	60.002300919799	3
16	5691	60.004600919799	1
16	5702	60.004601264146	3
16	5716	60.006901264146	1
16	5760	61.002300919799	3
16	5773	61.004600919799	1
16	5784	61.004601264146	3
16	5798	61.006901264146	1
16	5840	62.002300919799	3
16	5854	62.004600919799	1
16	5865	62.004601264146	3
16	5879	62.006901264146	1
16	5923	63.002300919799	3
16	5936	63.004600919799	1
16	5947	63.004601264146	3
16	5961	63.006901264146	1
16	6003	64.002300919799	3
16	6017	64.004600919799	1
16	6028	64.004601264146	3
16	6042	64.006901264146	1
16	6086	65.002300919799	3
16	6099	65.004600919799	1
16	6110	65.004601264146	3
16	6124	65.006901264146	1
16	6166	66.002300919799	3
16	6180	66.004600919799	1
16	6191	66.004601264146	3
16	6205	66.006901264146	1
16	6249	67.002300919799	3
16	6262	67.004600919799	1
16	6273	67.004601264146	3
16	6287	67.006901264146	1
16	6329	68.002300919799	3
16	6343	68.004600919799	1
16	6354	68.004601264146	3
16	6368	68.006901264146	1
16	6412	69.002300919799	3
16	6425	69.004600919799	1
16	6436	69.004601264146	3
16	6450	69.006901264146	1
16	6492	70.002300919799	3
16	6506	70.004600919799	1
16	6517	70.004601264146	3
16	6531	70.006901264146	1
16	6575	71.002300919799	3
16	6588	71.004600919799	1
16	6599	71.004601264146	3
16	6613	71.006901264146	1
16	6655	72.002300919799	3
16	6669	72.004600919799	1
16	6680	72.004601264146	3
16	6694	72.006901264146	1
16	6738	73.002300919799	3
16	6751	73.004600919799	1
16	6762	73.004601264146	3
16	6776	73.006901264146	1
16	6818	74.002300919799	3
16	6832	74.004600919799	1
16	6843	74.004601264146	3
16	6857	74.006901264146	1
16	6901	75.002300919799	3
16	6914	75.004600919799	1
16	6925	75.004601264146	3
16	6939	75.006901264146	1
16	6981	76.002300919799	3
16	6995	76.004600919799	1
16	7006	76.004601264146	3
16	7020	76.006901264146	1
16	7064	77.002300919799	3
16	7077	77.004600919799	1
16	7088	77.004601264146	3
16	7102	77.006901264146	1
16	7144	78.002300919799	3
16	7158	78.004600919799	1
16	7169	78.004601264146	3
16	7183	78.006901264146	1
16	7227	79.002300919799	3
16	7240	79.004600919799	1
16	7251	79.004601264146	3
16	7265	79.006901264146	1
16	7307	80.002300919799	3
16	7321	80.004600919799	1
16	7332	80.004601264146	3
16	7346	80.006901264146	1
16	7390	81.002300919799	3
16	7403	81.004600919799	1
16	7414	81.004601264146	3
16	7428	81.006901264146	1
16	7470	82.002300919799	3
16	7484	82.004600919799	1
16	7495	82.004601264146	3
16	7509	82.006901264146	1
16	7553	83.002300919799	3
16	7566	83.004600919799	1
16	7577	83.004601264146	3
16	7591	83.006901264146	1
16	7633	84.002300919799	3
16	7647	84.004600919799	1
16	7658	84.004601264146	3
16	7672	84.006901264146	1
16	7716	85.002300919799	3
16	7729	85.004600919799	1
16	7740	85.004601264146	3
16	7754	85.006901264146	1
16	7796	86.002300919799	3
16	7810	86.004600919799	1
16	7821	86.004601264146	3
16	7835	86.006901264146	1
16	7879	87.002300919799	3
16	7892	87.004600919799	1
16	7903	87.004601264146	3
16	7917	87.006901264146	1
16	7959	88.002300919799	3
16	7973	88.004600919799	1
16	7984	88.004601264146	3
16	7998	88.006901264146	1
16	8042	89.002300919799	3
16	8055	89.004600919799	1
16	8066	89.004601264146	3
16	8080	89.006901264146	1
16	8122	90.002300919799	3
16	8136	90.004600919799	1
16	8147	90.004601264146	3
16	8161	90.006901264146	1
16	8205	91.002300919799	3
16	8218	91.004600919799	1
16	8229	91.004601264146	3
16	8243	91.006901264146	1
16	8285	92.002300919799	3
16	8299	92.004600919799	1
16	8310	92.004601264146	3
16	8324	92.006901264146	1
16	8368	93.002300919799	3
16	8381	93.004600919799	1
16	8392	93.004601264146	3
16	8406	93.006901264146	1
16	8448	94.002300919799	3
16	8462	94.004600919799	1
16	8473	94.004601264146	3
16	8487	94.006901264146	1
16	8531	95.002300919799	3
16	8544	95.004600919799	1
16	8555	95.004601264146	3
16	8569	95.006901264146	1
16	8611	96.002300919799	3
16	8625	96.004600919799	1
16	8636	96.004601264146	3
16	8650	96.006901264146	1
16	8694	97.002300919799	3
16	8707	97.004600919799	1
16	8718	97.004601264146	3
16	8732	97.006901264146	1
16	8774	98.002300919799	3
16	8788	98.004600919799	1
16	8799	98.004601264146	3
16	8813	98.006901264146	1
16	8857	99.002300919799	3
16	8870	99.004600919799	1
16	8881	99.004601264146	3
16	8895	99.006901264146	1
17	0	0	1
17	170	0.007882471601	2
17	195	0.008134471601	1
17	227	0.008387319667	2
17	243	0.008719319667	1
17	407	0.329222906584	2
17	432	0.329554906584	1
18	0	0	1
18	64	0.00688909738	3
[...]
131	5960	63.006901259134	0.006901259134
131	6041	64.006901259134	0.006901259134
131	6123	65.006901259134	0.006901259134
131	6204	66.006901259134	0.006901259134
131	6286	67.006901259134	0.006901259134
131	6367	68.006901259134	0.006901259134
131	6449	69.006901259134	0.006901259134
131	6530	70.006901259134	0.006901259134
131	6612	71.006901259134	0.006901259134
131	6693	72.006901259134	0.006901259134
131	6775	73.006901259134	0.006901259134
131	6856	74.006901259134	0.006901259134
131	6938	75.006901259134	0.006901259134
131	7019	76.006901259134	0.006901259134
131	7101	77.006901259134	0.006901259134
131	7182	78.006901259134	0.006901259134
131	7264	79.006901259134	0.006901259134
131	7345	80.006901259134	0.006901259134
131	7427	81.006901259134	0.006901259134
131	7508	82.006901259134	0.006901259134
131	7590	83.006901259134	0.006901259134
131	7671	84.006901259134	0.006901259134
131	7753	85.006901259134	0.006901259134
131	7834	86.006901259134	0.006901259134
131	7916	87.006901259134	0.006901259134
131	7997	88.006901259134	0.006901259134
131	8079	89.006901259134	0.006901259134
131	8160	90.006901259134	0.006901259134
131	8242	91.006901259134	0.006901259134
131	8323	92.006901259134	0.006901259134
131	8405	93.006901259134	0.006901259134
131	8486	94.006901259134	0.006901259134
131	8568	95.006901259134	0.006901259134
131	8649	96.006901259134	0.006901259134
131	8731	97.006901259134	0.006901259134
131	8812	98.006901259134	0.006901259134
131	8894	99.006901259134	0.006901259134
132	794	0.347253480053	0
132	879	1.006901259134	1
132	959	2.006901259134	2
132	1039	3.006901259134	3
132	1132	4.006901259134	4
132	1212	5.006901259134	5
132	1299	6.006901259134	6
132	1379	7.006901259134	7
132	1462	8.006901259134	8
132	1542	9.006901259134	9
132	1625	10.006901259134	10
132	1705	11.006901259134	11
132	1788	12.006901259134	12
132	1868	13.006901259134	13
132	1951	14.006901259134	14
132	2031	15.006901259134	15
132	2115	16.006901259134	16
132	2195	17.006901259134	17
132	2278	18.006901259134	18
132	2370	19.006901259134	19
132	2451	20.006901259134	20
132	2537	21.006901259134	21
132	2618	22.006901259134	22
132	2700	23.006901259134	23
132	2781	24.006901259134	24
132	2863	25.006901259134	25
132	2944	26.006901259134	26
132	3026	27.006901259134	27
132	3107	28.006901259134	28
132	3189	29.006901259134	29
132	3270	30.006901259134	30
132	3352	31.006901259134	31
132	3433	32.006901259134	32
132	3515	33.006901259134	33
132	3596	34.006901259134	34
132	3678	35.006901259134	35
132	3759	36.006901259134	36
132	3841	37.006901259134	37
132	3922	38.006901259134	38
132	4004	39.006901259134	39
132	4085	40.006901259134	40
132	4167	41.006901259134	41
132	4248	42.006901259134	42
132	4330	43.006901259134	43
132	4411	44.006901259134	44
132	4493	45.006901259134	45
132	4574	46.006901259134	46
132	4656	47.006901259134	47
132	4737	48.006901259134	48
132	4819	49.006901259134	49
132	4900	50.006901259134	50
132	4982	51.006901259134	51
132	5063	52.006901259134	52
132	5145	53.006901259134	53
132	5226	54.006901259134	54
132	5308	55.006901259134	55
132	5389	56.006901259134	56
132	5471	57.006901259134	57
132	5552	58.006901259134	58
132	5634	59.006901259134	59
132	5715	60.006901259134	60
132	5797	61.006901259134	61
132	5878	62.006901259134	62
132	5960	63.006901259134	63
132	6041	64.006901259134	64
132	6123	65.006901259134	65
132	6204	66.006901259134	66
132	6286	67.006901259134	67
132	6367	68.006901259134	68
132	6449	69.006901259134	69
132	6530	70.006901259134	70
132	6612	71.006901259134	71
132	6693	72.006901259134	72
132	6775	73.006901259134	73
132	6856	74.006901259134	74
132	6938	75.006901259134	75
132	7019	76.006901259134	76
132	7101	77.006901259134	77
132	7182	78.006901259134	78
132	7264	79.006901259134	79
132	7345	80.006901259134	80
132	7427	81.006901259134	81
132	7508	82.006901259134	82
132	7590	83.006901259134	83
132	7671	84.006901259134	84
132	7753	85.006901259134	85
132	7834	86.006901259134	86
132	7916	87.006901259134	87
132	7997	88.006901259134	88
132	8079	89.006901259134	89
132	8160	90.006901259134	90
132	8242	91.006901259134	91
132	8323	92.006901259134	92
132	8405	93.006901259134	93
132	8486	94.006901259134	94
132	8568	95.006901259134	95
132	8649	96.006901259134	96
132	8731	97.006901259134	97
132	8812	98.006901259134	98
132	8894	99.006901259134	99
133	8917	0.1	0
133	8917	0.2	0
133	8917	0.3	0
133	8917	0.4	0
133	8917	0.5	0
133	8917	0.6	0
133	8917	0.7	0
133	8917	0.8	0
133	8917	0.9	0
133	8917	1	0
133	8917	1.1	0
133	8917	1.2	0
133	8917	1.3	0
133	8917	1.4	0
133	8917	1.5	0
133	8917	1.6	0
133	8917	1.7	0
133	8917	1.8	0
133	8917	1.9	0
133	8917	2	0
133	8917	2.1	0
133	8917	2.2	0
133	8917	2.3	0
133	8917	2.4	0
133	8917	2.5	0
133	8917	2.6	0
133	8917	2.7	0
133	8917	2.8	0
133	8917	2.9	0
133	8917	3	0
133	8917	3.1	0
133	8917	3.2	0
133	8917	3.3	0
133	8917	3.4	0
133	8917	3.5	0
133	8917	3.6	0
133	8917	3.7	0
133	8917	3.8	0
133	8917	3.9	0
133	8917	4	0
133	8917	4.1	0
133	8917	4.2	0
133	8917	4.3	0
133	8917	4.4	0
133	8917	4.5	0
133	8917	4.6	0
133	8917	4.7	0
133	8917	4.8	0
133	8917	4.9	0
133	8917	5	0
133	8917	5.1	0
133	8917	5.2	0
133	8917	5.3	0
133	8917	5.4	0
133	8917	5.5	0
133	8917	5.6	0
133	8917	5.7	0
133	8917	5.8	0
133	8917	5.9	0
133	8917	6	0
133	8917	6.1	0
133	8917	6.2	0
133	8917	6.3	0
133	8917	6.4	0
133	8917	6.5	0
133	8917	6.6	0
133	8917	6.7	0
133	8917	6.8	0
133	8917	6.9	0
133	8917	7	0
133	8917	7.1	0
133	8917	7.2	0
133	8917	7.3	0
133	8917	7.4	0
133	8917	7.5	0
133	8917	7.6	0
133	8917	7.7	0
133	8917	7.8	0
133	8917	7.9	0
133	8917	8	0
133	8917	8.1	0
133	8917	8.2	0
133	8917	8.3	0
133	8917	8.4	0
133	8917	8.5	0
133	8917	8.6	0
133	8917	8.7	0
133	8917	8.8	0
133	8917	8.9	0
133	8917	9	0
133	8917	9.1	0
133	8917	9.2	0
133	8917	9.3	0
133	8917	9.4	0
133	8917	9.5	0
133	8917	9.6	0
133	8917	9.7	0
133	8917	9.8	0
133	8917	9.9	0
133	8917	10	0
133	8917	10.1	0
133	8917	10.2	0
133	8917	10.3	0
133	8917	10.4	0
133	8917	10.5	0
133	8917	10.6	0
133	8917	10.7	0
133	8917	10.8	0
133	8917	10.9	0
133	8917	11	0
133	8917	11.1	0
133	8917	11.2	0
133	8917	11.3	0
133	8917	11.4	0
133	8917	11.5	0
133	8917	11.6	0
133	8917	11.7	0
133	8917	11.8	0
133	8917	11.9	0
133	8917	12	0
133	8917	12.1	0
133	8917	12.2	0
133	8917	12.3	0
133	8917	12.4	0
133	8917	12.5	0
133	8917	12.6	0
133	8917	12.7	0
133	8917	12.8	0
133	8917	12.9	0
133	8917	13	0
133	8917	13.1	0
133	8917	13.2	0
133	8917	13.3	0
133	8917	13.4	0
133	8917	13.5	0
133	8917	13.6	0
133	8917	13.7	0
133	8917	13.8	0
133	8917	13.9	0
133	8917	14	0
133	8917	14.1	0
133	8917	14.2	0
133	8917	14.3	0
133	8917	14.4	0
133	8917	14.5	0
133	8917	14.6	0
133	8917	14.7	0
133	8917	14.8	0
133	8917	14.9	0
133	8917	15	0
133	8917	15.1	0
133	8917	15.2	0
133	8917	15.3	0
133	8917	15.4	0
133	8917	15.5	0
133	8917	15.6	0
133	8917	15.7	0
133	8917	15.8	0
133	8917	15.9	0
133	8917	16	0
133	8917	16.1	0
133	8917	16.2	0
133	8917	16.3	0
133	8917	16.4	0
133	8917	16.5	0
133	8917	16.6	0
133	8917	16.7	0
133	8917	16.8	0
133	8917	16.9	0
133	8917	17	0
133	8917	17.1	0
133	8917	17.2	0
133	8917	17.3	0
133	8917	17.4	0
133	8917	17.5	0
133	8917	17.6	0
133	8917	17.7	0
133	8917	17.8	0
133	8917	17.9	0
133	8917	18	0
133	8917	18.1	0
133	8917	18.2	0
133	8917	18.3	0
133	8917	18.4	0
133	8917	18.5	0
133	8917	18.6	0
133	8917	18.7	0
133	8917	18.8	0
133	8917	18.9	0
133	8917	19	0
133	8917	19.1	0
133	8917	19.2	0
133	8917	19.3	0
133	8917	19.4	0
133	8917	19.5	0
133	8917	19.6	0
133	8917	19.7	0
133	8917	19.8	0
133	8917	19.9	0
133	8917	20	0
133	8917	20.1	0
133	8917	20.2	0
133	8917	20.3	0
133	8917	20.4	0
133	8917	20.5	0
133	8917	20.6	0
133	8917	20.7	0
133	8917	20.8	0
133	8917	20.9	0
133	8917	21	0
133	8917	21.1	0
133	8917	21.2	0
133	8917	21.3	0
133	8917	21.4	0
133	8917	21.5	0
133	8917	21.6	0
133	8917	21.7	0
133	8917	21.8	0
133	8917	21.9	0
133	8917	22	0
133	8917	22.1	0
133	8917	22.2	0
133	8917	22.3	0
133	8917	22.4	0
133	8917	22.5	0
133	8917	22.6	0
133	8917	22.7	0
133	8917	22.8	0
133	8917	22.9	0
133	8917	23	0
133	8917	23.1	0
133	8917	23.2	0
133	8917	23.3	0
133	8917	23.4	0
133	8917	23.5	0
133	8917	23.6	0
133	8917	23.7	0
133	8917	23.8	0
133	8917	23.9	0
133	8917	24	0
133	8917	24.1	0
133	8917	24.2	0
133	8917	24.3	0
133	8917	24.4	0
133	8917	24.5	0
133	8917	24.6	0
133	8917	24.7	0
133	8917	24.8	0
133	8917	24.9	0
133	8917	25	0
133	8917	25.1	0
133	8917	25.2	0
133	8917	25.3	0
133	8917	25.4	0
133	8917	25.5	0
133	8917	25.6	0
133	8917	25.7	0
133	8917	25.8	0
133	8917	25.9	0
133	8917	26	0
133	8917	26.1	0
133	8917	26.2	0
133	8917	26.3	0
133	8917	26.4	0
133	8917	26.5	0
133	8917	26.6	0
133	8917	26.7	0
133	8917	26.8	0
133	8917	26.9	0
133	8917	27	0
133	8917	27.1	0
133	8917	27.2	0
133	8917	27.3	0
133	8917	27.4	0
133	8917	27.5	0
133	8917	27.6	0
133	8917	27.7	0
133	8917	27.8	0
133	8917	27.9	0
133	8917	28	0
133	8917	28.1	0
133	8917	28.2	0
133	8917	28.3	0
133	8917	28.4	0
133	8917	28.5	0
133	8917	28.6	0
133	8917	28.7	0
133	8917	28.8	0
133	8917	28.9	0
133	8917	29	0
133	8917	29.1	0
133	8917	29.2	0
133	8917	29.3	0
133	8917	29.4	0
133	8917	29.5	0
133	8917	29.6	0
133	8917	29.7	0
133	8917	29.8	0
133	8917	29.9	0
133	8917	30	0
133	8917	30.1	0
133	8917	30.2	0
133	8917	30.3	0
133	8917	30.4	0
133	8917	30.5	0
133	8917	30.6	0
133	8917	30.7	0
133	8917	30.8	0
133	8917	30.9	0
133	8917	31	0
133	8917	31.1	0
133	8917	31.2	0
133	8917	31.3	0
133	8917	31.4	0
133	8917	31.5	0
133	8917	31.6	0
133	8917	31.7	0
133	8917	31.8	0
133	8917	31.9	0
133	8917	32	0
133	8917	32.1	0
133	8917	32.2	0
133	8917	32.3	0
133	8917	32.4	0
133	8917	32.5	0
133	8917	32.6	0
133	8917	32.7	0
133	8917	32.8	0
133	8917	32.9	0
133	8917	33	0
133	8917	33.1	0
133	8917	33.2	0
133	8917	33.3	0
133	8917	33.4	0
133	8917	33.5	0
133	8917	33.6	0
133	8917	33.7	0
133	8917	33.8	0
133	8917	33.9	0
133	8917	34	0
133	8917	34.1	0
133	8917	34.2	0
133	8917	34.3	0
133	8917	34.4	0
133	8917	34.5	0
133	8917	34.6	0
133	8917	34.7	0
133	8917	34.8	0
133	8917	34.9	0
133	8917	35	0
133	8917	35.1	0
133	8917	35.2	0
133	8917	35.3	0
133	8917	35.4	0
133	8917	35.5	0
133	8917	35.6	0
133	8917	35.7	0
133	8917	35.8	0
133	8917	35.9	0
133	8917	36	0
133	8917	36.1	0
133	8917	36.2	0
133	8917	36.3	0
133	8917	36.4	0
133	8917	36.5	0
133	8917	36.6	0
133	8917	36.7	0
133	8917	36.8	0
133	8917	36.9	0
133	8917	37	0
133	8917	37.1	0
133	8917	37.2	0
133	8917	37.3	0
133	8917	37.4	0
133	8917	37.5	0
133	8917	37.6	0
133	8917	37.7	0
133	8917	37.8	0
133	8917	37.9	0
133	8917	38	0
133	8917	38.1	0
133	8917	38.2	0
133	8917	38.3	0
133	8917	38.4	0
133	8917	38.5	0
133	8917	38.6	0
133	8917	38.7	0
133	8917	38.8	0
133	8917	38.9	0
133	8917	39	0
133	8917	39.1	0
133	8917	39.2	0
133	8917	39.3	0
133	8917	39.4	0
133	8917	39.5	0
133	8917	39.6	0
133	8917	39.7	0
133	8917	39.8	0
133	8917	39.9	0
133	8917	40	0
133	8917	40.1	0
133	8917	40.2	0
133	8917	40.3	0
133	8917	40.4	0
133	8917	40.5	0
133	8917	40.6	0
133	8917	40.7	0
133	8917	40.8	0
133	8917	40.9	0
133	8917	41	0
133	8917	41.1	0
133	8917	41.2	0
133	8917	41.3	0
133	8917	41.4	0
133	8917	41.5	0
133	8917	41.6	0
133	8917	41.7	0
133	8917	41.8	0
133	8917	41.9	0
133	8917	42	0
133	8917	42.1	0
133	8917	42.2	0
133	8917	42.3	0
133	8917	42.4	0
133	8917	42.5	0
133	8917	42.6	0
133	8917	42.7	0
133	8917	42.8	0
133	8917	42.9	0
133	8917	43	0
133	8917	43.1	0
133	8917	43.2	0
133	8917	43.3	0
133	8917	43.4	0
133	8917	43.5	0
133	8917	43.6	0
133	8917	43.7	0
133	8917	43.8	0
133	8917	43.9	0
133	8917	44	0
133	8917	44.1	0
133	8917	44.2	0
133	8917	44.3	0
133	8917	44.4	0
133	8917	44.5	0
133	8917	44.6	0
133	8917	44.7	0
133	8917	44.8	0
133	8917	44.9	0
133	8917	45	0
133	8917	45.1	0
133	8917	45.2	0
133	8917	45.3	0
133	8917	45.4	0
133	8917	45.5	0
133	8917	45.6	0
133	8917	45.7	0
133	8917	45.8	0
133	8917	45.9	0
133	8917	46	0
133	8917	46.1	0
133	8917	46.2	0
133	8917	46.3	0
133	8917	46.4	0
133	8917	46.5	0
133	8917	46.6	0
133	8917	46.7	0
133	8917	46.8	0
133	8917	46.9	0
133	8917	47	0
133	8917	47.1	0
133	8917	47.2	0
133	8917	47.3	0
133	8917	47.4	0
133	8917	47.5	0
133	8917	47.6	0
133	8917	47.7	0
133	8917	47.8	0
133	8917	47.9	0
133	8917	48	0
133	8917	48.1	0
133	8917	48.2	0
133	8917	48.3	0
133	8917	48.4	0
133	8917	48.5	0
133	8917	48.6	0
133	8917	48.7	0
133	8917	48.8	0
133	8917	48.9	0
133	8917	49	0
133	8917	49.1	0
133	8917	49.2	0
133	8917	49.3	0
133	8917	49.4	0
133	8917	49.5	0
133	8917	49.6	0
133	8917	49.7	0
133	8917	49.8	0
133	8917	49.9	0
133	8917	50	0
133	8917	50.1	0
133	8917	50.2	0
133	8917	50.3	0
133	8917	50.4	0
133	8917	50.5	0
133	8917	50.6	0
133	8917	50.7	0
133	8917	50.8	0
133	8917	50.9	0
133	8917	51	0
133	8917	51.1	0
133	8917	51.2	0
133	8917	51.3	0
133	8917	51.4	0
133	8917	51.5	0
133	8917	51.6	0
133	8917	51.7	0
133	8917	51.8	0
133	8917	51.9	0
133	8917	52	0
133	8917	52.1	0
133	8917	52.2	0
133	8917	52.3	0
133	8917	52.4	0
133	8917	52.5	0
133	8917	52.6	0
133	8917	52.7	0
133	8917	52.8	0
133	8917	52.9	0
133	8917	53	0
133	8917	53.1	0
133	8917	53.2	0
133	8917	53.3	0
133	8917	53.4	0
133	8917	53.5	0
133	8917	53.6	0
133	8917	53.7	0
133	8917	53.8	0
133	8917	53.9	0
133	8917	54	0
133	8917	54.1	0
133	8917	54.2	0
133	8917	54.3	0
133	8917	54.4	0
133	8917	54.5	0
133	8917	54.6	0
133	8917	54.7	0
133	8917	54.8	0
133	8917	54.9	0
133	8917	55	0
133	8917	55.1	0
133	8917	55.2	0
133	8917	55.3	0
133	8917	55.4	0
133	8917	55.5	0
133	8917	55.6	0
133	8917	55.7	0
133	8917	55.8	0
133	8917	55.9	0
133	8917	56	0
133	8917	56.1	0
133	8917	56.2	0
133	8917	56.3	0
133	8917	56.4	0
133	8917	56.5	0
133	8917	56.6	0
133	8917	56.7	0
133	8917	56.8	0
133	8917	56.9	0
133	8917	57	0
133	8917	57.1	0
133	8917	57.2	0
133	8917	57.3	0
133	8917	57.4	0
133	8917	57.5	0
133	8917	57.6	0
133	8917	57.7	0
133	8917	57.8	0
133	8917	57.9	0
133	8917	58	0
133	8917	58.1	0
133	8917	58.2	0
133	8917	58.3	0
133	8917	58.4	0
133	8917	58.5	0
133	8917	58.6	0
133	8917	58.7	0
133	8917	58.8	0
133	8917	58.9	0
133	8917	59	0
133	8917	59.1	0
133	8917	59.2	0
133	8917	59.3	0
133	8917	59.4	0
133	8917	59.5	0
133	8917	59.6	0
133	8917	59.7	0
133	8917	59.8	0
133	8917	59.9	0
133	8917	60	0
133	8917	60.1	0
133	8917	60.2	0
133	8917	60.3	0
133	8917	60.4	0
133	8917	60.5	0
133	8917	60.6	0
133	8917	60.7	0
133	8917	60.8	0
133	8917	60.9	0
133	8917	61	0
133	8917	61.1	0
133	8917	61.2	0
133	8917	61.3	0
133	8917	61.4	0
133	8917	61.5	0
133	8917	61.6	0
133	8917	61.7	0
133	8917	61.8	0
133	8917	61.9	0
133	8917	62	0
133	8917	62.1	0
133	8917	62.2	0
133	8917	62.3	0
133	8917	62.4	0
133	8917	62.5	0
133	8917	62.6	0
133	8917	62.7	0
133	8917	62.8	0
133	8917	62.9	0
133	8917	63	0
133	8917	63.1	0
133	8917	63.2	0
133	8917	63.3	0
133	8917	63.4	0
133	8917	63.5	0
133	8917	63.6	0
133	8917	63.7	0
133	8917	63.8	0
133	8917	63.9	0
133	8917	64	0
133	8917	64.1	0
133	8917	64.2	0
133	8917	64.3	0
133	8917	64.4	0
133	8917	64.5	0
133	8917	64.6	0
133	8917	64.7	0
133	8917	64.8	0
133	8917	64.9	0
133	8917	65	0
133	8917	65.1	0
133	8917	65.2	0
133	8917	65.3	0
133	8917	65.4	0
133	8917	65.5	0
133	8917	65.6	0
133	8917	65.7	0
133	8917	65.8	0
133	8917	65.9	0
133	8917	66	0
133	8917	66.1	0
133	8917	66.2	0
133	8917	66.3	0
133	8917	66.4	0
133	8917	66.5	0
133	8917	66.6	0
133	8917	66.7	0
133	8917	66.8	0
133	8917	66.9	0
133	8917	67	0
133	8917	67.1	0
133	8917	67.2	0
133	8917	67.3	0
133	8917	67.4	0
133	8917	67.5	0
133	8917	67.6	0
133	8917	67.7	0
133	8917	67.8	0
133	8917	67.9	0
133	8917	68	0
133	8917	68.1	0
133	8917	68.2	0
133	8917	68.3	0
133	8917	68.4	0
133	8917	68.5	0
133	8917	68.6	0
133	8917	68.7	0
133	8917	68.8	0
133	8917	68.9	0
133	8917	69	0
133	8917	69.1	0
133	8917	69.2	0
133	8917	69.3	0
133	8917	69.4	0
133	8917	69.5	0
133	8917	69.6	0
133	8917	69.7	0
133	8917	69.8	0
133	8917	69.9	0
133	8917	70	0
133	8917	70.1	0
133	8917	70.2	0
133	8917	70.3	0
133	8917	70.4	0
133	8917	70.5	0
133	8917	70.6	0
133	8917	70.7	0
133	8917	70.8	0
133	8917	70.9	0
133	8917	71	0
133	8917	71.1	0
133	8917	71.2	0
133	8917	71.3	0
133	8917	71.4	0
133	8917	71.5	0
133	8917	71.6	0
133	8917	71.7	0
133	8917	71.8	0
133	8917	71.9	0
133	8917	72	0
133	8917	72.1	0
133	8917	72.2	0
133	8917	72.3	0
133	8917	72.4	0
133	8917	72.5	0
133	8917	72.6	0
133	8917	72.7	0
133	8917	72.8	0
133	8917	72.9	0
133	8917	73	0
133	8917	73.1	0
133	8917	73.2	0
133	8917	73.3	0
133	8917	73.4	0
133	8917	73.5	0
133	8917	73.6	0
133	8917	73.7	0
133	8917	73.8	0
133	8917	73.9	0
133	8917	74	0
133	8917	74.1	0
133	8917	74.2	0
133	8917	74.3	0
133	8917	74.4	0
133	8917	74.5	0
133	8917	74.6	0
133	8917	74.7	0
133	8917	74.8	0
133	8917	74.9	0
133	8917	75	0
133	8917	75.1	0
133	8917	75.2	0
133	8917	75.3	0
133	8917	75.4	0
133	8917	75.5	0
133	8917	75.6	0
133	8917	75.7	0
133	8917	75.8	0
133	8917	75.9	0
133	8917	76	0
133	8917	76.1	0
133	8917	76.2	0
133	8917	76.3	0
133	8917	76.4	0
133	8917	76.5	0
133	8917	76.6	0
133	8917	76.7	0
133	8917	76.8	0
133	8917	76.9	0
133	8917	77	0
133	8917	77.1	0
133	8917	77.2	0
133	8917	77.3	0
133	8917	77.4	0
133	8917	77.5	0
133	8917	77.6	0
133	8917	77.7	0
133	8917	77.8	0
133	8917	77.9	0
133	8917	78	0
133	8917	78.1	0
133	8917	78.2	0
133	8917	78.3	0
133	8917	78.4	0
133	8917	78.5	0
133	8917	78.6	0
133	8917	78.7	0
133	8917	78.8	0
133	8917	78.9	0
133	8917	79	0
133	8917	79.1	0
133	8917	79.2	0
133	8917	79.3	0
133	8917	79.4	0
133	8917	79.5	0
133	8917	79.6	0
133	8917	79.7	0
133	8917	79.8	0
133	8917	79.9	0
133	8917	80	0
133	8917	80.1	0
133	8917	80.2	0
133	8917	80.3	0
133	8917	80.4	0
133	8917	80.5	0
133	8917	80.6	0
133	8917	80.7	0
133	8917	80.8	0
133	8917	80.9	0
133	8917	81	0
133	8917	81.1	0
133	8917	81.2	0
133	8917	81.3	0
133	8917	81.4	0
133	8917	81.5	0
133	8917	81.6	0
133	8917	81.7	0
133	8917	81.8	0
133	8917	81.9	0
133	8917	82	0
133	8917	82.1	0
133	8917	82.2	0
133	8917	82.3	0
133	8917	82.4	0
133	8917	82.5	0
133	8917	82.6	0
133	8917	82.7	0
133	8917	82.8	0
133	8917	82.9	0
133	8917	83	0
133	8917	83.1	0
133	8917	83.2	0
133	8917	83.3	0
133	8917	83.4	0
133	8917	83.5	0
133	8917	83.6	0
133	8917	83.7	0
133	8917	83.8	0
133	8917	83.9	0
133	8917	84	0
133	8917	84.1	0
133	8917	84.2	0
133	8917	84.3	0
133	8917	84.4	0
133	8917	84.5	0
133	8917	84.6	0
133	8917	84.7	0
133	8917	84.8	0
133	8917	84.9	0
133	8917	85	0
133	8917	85.1	0
133	8917	85.2	0
133	8917	85.3	0
133	8917	85.4	0
133	8917	85.5	0
133	8917	85.6	0
133	8917	85.7	0
133	8917	85.8	0
133	8917	85.9	0
133	8917	86	0
133	8917	86.1	0
133	8917	86.2	0
133	8917	86.3	0
133	8917	86.4	0
133	8917	86.5	0
133	8917	86.6	0
133	8917	86.7	0
133	8917	86.8	0
133	8917	86.9	0
133	8917	87	0
133	8917	87.1	0
133	8917	87.2	0
133	8917	87.3	0
133	8917	87.4	0
133	8917	87.5	0
133	8917	87.6	0
133	8917	87.7	0
133	8917	87.8	0
133	8917	87.9	0
133	8917	88	0
133	8917	88.1	0
133	8917	88.2	0
133	8917	88.3	0
133	8917	88.4	0
133	8917	88.5	0
133	8917	88.6	0
133	8917	88.7	0
133	8917	88.8	0
133	8917	88.9	0
133	8917	89	0
133	8917	89.1	0
133	8917	89.2	0
133	8917	89.3	0
133	8917	89.4	0
133	8917	89.5	0
133	8917	89.6	0
133	8917	89.7	0
133	8917	89.8	0
133	8917	89.9	0
133	8917	90	0
133	8917	90.1	0
133	8917	90.2	0
133	8917	90.3	0
133	8917	90.4	0
133	8917	90.5	0
133	8917	90.6	0
133	8917	90.7	0
133	8917	90.8	0
133	8917	90.9	0
133	8917	91	0
133	8917	91.1	0
133	8917	91.2	0
133	8917	91.3	0
133	8917	91.4	0
133	8917	91.5	0
133	8917	91.6	0
133	8917	91.7	0
133	8917	91.8	0
133	8917	91.9	0
133	8917	92	0
133	8917	92.1	0
133	8917	92.2	0
133	8917	92.3	0
133	8917	92.4	0
133	8917	92.5	0
133	8917	92.6	0
133	8917	92.7	0
133	8917	92.8	0
133	8917	92.9	0
133	8917	93	0
133	8917	93.1	0
133	8917	93.2	0
133	8917	93.3	0
133	8917	93.4	0
133	8917	93.5	0
133	8917	93.6	0
133	8917	93.7	0
133	8917	93.8	0
133	8917	93.9	0
133	8917	94	0
133	8917	94.1	0
133	8917	94.2	0
133	8917	94.3	0
133	8917	94.4	0
133	8917	94.5	0
133	8917	94.6	0
133	8917	94.7	0
133	8917	94.8	0
133	8917	94.9	0
133	8917	95	0
133	8917	95.1	0
133	8917	95.2	0
133	8917	95.3	0
133	8917	95.4	0
133	8917	95.5	0
133	8917	95.6	0
133	8917	95.7	0
133	8917	95.8	0
133	8917	95.9	0
133	8917	96	0
133	8917	96.1	0
133	8917	96.2	0
133	8917	96.3	0
133	8917	96.4	0
133	8917	96.5	0
133	8917	96.6	0
133	8917	96.7	0
133	8917	96.8	0
133	8917	96.9	0
133	8917	97	0
133	8917	97.1	0
133	8917	97.2	0
133	8917	97.3	0
133	8917	97.4	0
133	8917	97.5	0
133	8917	97.6	0
133	8917	97.7	0
133	8917	97.8	0
133	8917	97.9	0
133	8917	98	0
133	8917	98.1	0
133	8917	98.2	0
133	8917	98.3	0
133	8917	98.4	0
133	8917	98.5	0
133	8917	98.6	0
133	8917	98.7	0
133	8917	98.8	0
133	8917	98.9	0
133	8917	99	0
133	8917	99.1	0
133	8917	99.2	0
133	8917	99.3	0
133	8917	99.4	0
133	8917	99.5	0
133	8917	99.6	0
133	8917	99.7	0
133	8917	99.8	0
133	8917	99.9	0
133	8917	100	0

