version 2
run TnTAODV30_Mobility_0mps-0-20210524-16:05:11-4126
attr configname TnTAODV30_Mobility_0mps
attr datetime 20210524-16:05:11
attr experiment TnTAODV30_Mobility_0mps
attr inifile AODV30_TnT.ini
attr iterationvars ""
attr iterationvarsf ""
attr measurement ""
attr network AODV30_TnT
attr processid 4126
attr repetition 0
attr replication #0
attr resultdir results
attr runnumber 0
attr seedset 0
param **.H*.mobility.typename "\"MassMobility\""
param **.S*.mobility.typename "\"MassMobility\""
param **.*.mobility.changeInterval "normal(5s, 0.1s)"
param **.*.mobility.angleDelta "normal(0deg, 30deg)"
param **.*.mobility.speed "normal(0mps, 0.01mps)"
param **.wlan[*].typename "\"AckingWirelessInterface\""
param **.wlan[*].bitrate 2Mbps
param **.wlan[*].mac.headerLength 23B
param **.wlan[*].radio.typename "\"UnitDiskRadio\""
param **.wlan[*].radio.transmitter.headerLength 96b
param **.wlan[*].radio.transmitter.communicationRange 250m
param **.wlan[*].radio.transmitter.interferenceRange 0m
param **.wlan[*].radio.transmitter.detectionRange 0m
param **.wlan[*].radio.receiver.ignoreInterference true
param **.host[*].mobility.typename "\"StationaryMobility\""
param **.mobility.constraintAreaMinZ 0m
param **.mobility.constraintAreaMaxZ 0m
param **.mobility.constraintAreaMinX 10m
param **.mobility.constraintAreaMinY 10m
param **.mobility.constraintAreaMaxX 1000m
param **.mobility.constraintAreaMaxY 700m
param *.visualizer.sceneVisualizer.descriptionFigure "\"title\""
param *.S*.numApps 1
param *.S*.app[0].typename "\"UdpBasicApp\""
param *.S*.app[0].destPort 1000
param *.S*.app[0].sendInterval 0.25s
param *.S*.app[0].startTime 0s
param *.S*.app[0].messageLength 512Byte
param *.S*.app[0].packetName "\"UDPdata\""
param *.Bs1.numApps 1
param *.Bs1.app[0].typename "\"UdpSink\""
param *.Bs1.app[0].localPort 1000
param *.Bs2.numApps 1
param *.Bs2.app[0].typename "\"UdpSink\""
param *.Bs2.app[0].localPort 1000
param *.S1.app[0].destAddresses "\"Bs1\""
param *.S2.app[0].destAddresses "\"Bs1\""
param *.S3.app[0].destAddresses "\"Bs2\""
param *.S4.app[0].destAddresses "\"Bs2\""
param *.S5.app[0].destAddresses "\"Bs1\""
param **.hasStatus true

vector 0 AODV30_TnT.Bs1.wlan[0].radio radioMode:vector ETV
attr interpolationmode sample-hold
attr source radioModeChanged
attr title "Radio mode, vector"
vector 1 AODV30_TnT.S5.wlan[0].radio radioMode:vector ETV
attr interpolationmode sample-hold
attr source radioModeChanged
attr title "Radio mode, vector"
vector 2 AODV30_TnT.S1.wlan[0].radio radioMode:vector ETV
attr interpolationmode sample-hold
attr source radioModeChanged
attr title "Radio mode, vector"
vector 3 AODV30_TnT.S2.wlan[0].radio radioMode:vector ETV
attr interpolationmode sample-hold
attr source radioModeChanged
attr title "Radio mode, vector"
vector 4 AODV30_TnT.S3.wlan[0].radio radioMode:vector ETV
attr interpolationmode sample-hold
attr source radioModeChanged
attr title "Radio mode, vector"
vector 5 AODV30_TnT.S4.wlan[0].radio radioMode:vector ETV
attr interpolationmode sample-hold
attr source radioModeChanged
attr title "Radio mode, vector"
vector 6 AODV30_TnT.H1.wlan[0].radio radioMode:vector ETV
attr interpolationmode sample-hold
attr source radioModeChanged
attr title "Radio mode, vector"
vector 7 AODV30_TnT.H2.wlan[0].radio radioMode:vector ETV
attr interpolationmode sample-hold
attr source radioModeChanged
attr title "Radio mode, vector"
vector 8 AODV30_TnT.H3.wlan[0].radio radioMode:vector ETV
attr interpolationmode sample-hold
attr source radioModeChanged
attr title "Radio mode, vector"
vector 9 AODV30_TnT.H4.wlan[0].radio radioMode:vector ETV
attr interpolationmode sample-hold
attr source radioModeChanged
attr title "Radio mode, vector"
vector 10 AODV30_TnT.H5.wlan[0].radio radioMode:vector ETV
attr interpolationmode sample-hold
attr source radioModeChanged
attr title "Radio mode, vector"
vector 11 AODV30_TnT.H6.wlan[0].radio radioMode:vector ETV
attr interpolationmode sample-hold
attr source radioModeChanged
attr title "Radio mode, vector"
vector 12 AODV30_TnT.H7.wlan[0].radio radioMode:vector ETV
attr interpolationmode sample-hold
attr source radioModeChanged
attr title "Radio mode, vector"
vector 13 AODV30_TnT.H8.wlan[0].radio radioMode:vector ETV
attr interpolationmode sample-hold
attr source radioModeChanged
attr title "Radio mode, vector"
vector 14 AODV30_TnT.H9.wlan[0].radio radioMode:vector ETV
attr interpolationmode sample-hold
attr source radioModeChanged
attr title "Radio mode, vector"
vector 15 AODV30_TnT.H10.wlan[0].radio radioMode:vector ETV
attr interpolationmode sample-hold
attr source radioModeChanged
attr title "Radio mode, vector"
vector 16 AODV30_TnT.H11.wlan[0].radio radioMode:vector ETV
attr interpolationmode sample-hold
attr source radioModeChanged
attr title "Radio mode, vector"
vector 17 AODV30_TnT.H12.wlan[0].radio radioMode:vector ETV
attr interpolationmode sample-hold
attr source radioModeChanged
attr title "Radio mode, vector"
vector 18 AODV30_TnT.H13.wlan[0].radio radioMode:vector ETV
attr interpolationmode sample-hold
attr source radioModeChanged
attr title "Radio mode, vector"
vector 19 AODV30_TnT.H14.wlan[0].radio radioMode:vector ETV
attr interpolationmode sample-hold
attr source radioModeChanged
attr title "Radio mode, vector"
vector 20 AODV30_TnT.H15.wlan[0].radio radioMode:vector ETV
attr interpolationmode sample-hold
attr source radioModeChanged
attr title "Radio mode, vector"
vector 21 AODV30_TnT.H16.wlan[0].radio radioMode:vector ETV
attr interpolationmode sample-hold
attr source radioModeChanged
attr title "Radio mode, vector"
vector 22 AODV30_TnT.H17.wlan[0].radio radioMode:vector ETV
attr interpolationmode sample-hold
attr source radioModeChanged
attr title "Radio mode, vector"
vector 23 AODV30_TnT.H18.wlan[0].radio radioMode:vector ETV
attr interpolationmode sample-hold
attr source radioModeChanged
attr title "Radio mode, vector"
vector 24 AODV30_TnT.H19.wlan[0].radio radioMode:vector ETV
attr interpolationmode sample-hold
attr source radioModeChanged
attr title "Radio mode, vector"
vector 25 AODV30_TnT.H20.wlan[0].radio radioMode:vector ETV
attr interpolationmode sample-hold
attr source radioModeChanged
attr title "Radio mode, vector"
vector 26 AODV30_TnT.Bs2.wlan[0].radio radioMode:vector ETV
attr interpolationmode sample-hold
attr source radioModeChanged
attr title "Radio mode, vector"
vector 27 AODV30_TnT.H21.wlan[0].radio radioMode:vector ETV
attr interpolationmode sample-hold
attr source radioModeChanged
attr title "Radio mode, vector"
vector 28 AODV30_TnT.H22.wlan[0].radio radioMode:vector ETV
attr interpolationmode sample-hold
attr source radioModeChanged
attr title "Radio mode, vector"
vector 29 AODV30_TnT.H23.wlan[0].radio radioMode:vector ETV
attr interpolationmode sample-hold
attr source radioModeChanged
attr title "Radio mode, vector"
vector 30 AODV30_TnT.H24.wlan[0].radio radioMode:vector ETV
attr interpolationmode sample-hold
attr source radioModeChanged
attr title "Radio mode, vector"
vector 31 AODV30_TnT.H25.wlan[0].radio radioMode:vector ETV
attr interpolationmode sample-hold
attr source radioModeChanged
attr title "Radio mode, vector"
vector 32 AODV30_TnT.H26.wlan[0].radio radioMode:vector ETV
attr interpolationmode sample-hold
attr source radioModeChanged
attr title "Radio mode, vector"
vector 33 AODV30_TnT.H27.wlan[0].radio radioMode:vector ETV
attr interpolationmode sample-hold
attr source radioModeChanged
attr title "Radio mode, vector"
vector 34 AODV30_TnT.H28.wlan[0].radio radioMode:vector ETV
attr interpolationmode sample-hold
attr source radioModeChanged
attr title "Radio mode, vector"
vector 35 AODV30_TnT.H29.wlan[0].radio radioMode:vector ETV
attr interpolationmode sample-hold
attr source radioModeChanged
attr title "Radio mode, vector"
vector 36 AODV30_TnT.H30.wlan[0].radio radioMode:vector ETV
attr interpolationmode sample-hold
attr source radioModeChanged
attr title "Radio mode, vector"
vector 37 AODV30_TnT.Bs1.wlan[0].radio receptionState:vector ETV
attr interpolationmode sample-hold
attr source receptionStateChanged
attr title "Radio reception state, vector"
vector 38 AODV30_TnT.Bs1.wlan[0].radio transmissionState:vector ETV
attr interpolationmode sample-hold
attr source transmissionStateChanged
attr title "Radio transmission state, vector"
vector 39 AODV30_TnT.S5.wlan[0].radio receptionState:vector ETV
attr interpolationmode sample-hold
attr source receptionStateChanged
attr title "Radio reception state, vector"
vector 40 AODV30_TnT.S5.wlan[0].radio transmissionState:vector ETV
attr interpolationmode sample-hold
attr source transmissionStateChanged
attr title "Radio transmission state, vector"
vector 41 AODV30_TnT.S1.wlan[0].radio receptionState:vector ETV
attr interpolationmode sample-hold
attr source receptionStateChanged
attr title "Radio reception state, vector"
vector 42 AODV30_TnT.S1.wlan[0].radio transmissionState:vector ETV
attr interpolationmode sample-hold
attr source transmissionStateChanged
attr title "Radio transmission state, vector"
vector 43 AODV30_TnT.S2.wlan[0].radio receptionState:vector ETV
attr interpolationmode sample-hold
attr source receptionStateChanged
attr title "Radio reception state, vector"
vector 44 AODV30_TnT.S2.wlan[0].radio transmissionState:vector ETV
attr interpolationmode sample-hold
attr source transmissionStateChanged
attr title "Radio transmission state, vector"
vector 45 AODV30_TnT.S3.wlan[0].radio receptionState:vector ETV
attr interpolationmode sample-hold
attr source receptionStateChanged
attr title "Radio reception state, vector"
vector 46 AODV30_TnT.S3.wlan[0].radio transmissionState:vector ETV
attr interpolationmode sample-hold
attr source transmissionStateChanged
attr title "Radio transmission state, vector"
vector 47 AODV30_TnT.S4.wlan[0].radio receptionState:vector ETV
attr interpolationmode sample-hold
attr source receptionStateChanged
attr title "Radio reception state, vector"
vector 48 AODV30_TnT.S4.wlan[0].radio transmissionState:vector ETV
attr interpolationmode sample-hold
attr source transmissionStateChanged
attr title "Radio transmission state, vector"
vector 49 AODV30_TnT.H1.wlan[0].radio receptionState:vector ETV
attr interpolationmode sample-hold
attr source receptionStateChanged
attr title "Radio reception state, vector"
vector 50 AODV30_TnT.H1.wlan[0].radio transmissionState:vector ETV
attr interpolationmode sample-hold
attr source transmissionStateChanged
attr title "Radio transmission state, vector"
vector 51 AODV30_TnT.H2.wlan[0].radio receptionState:vector ETV
attr interpolationmode sample-hold
attr source receptionStateChanged
attr title "Radio reception state, vector"
vector 52 AODV30_TnT.H2.wlan[0].radio transmissionState:vector ETV
attr interpolationmode sample-hold
attr source transmissionStateChanged
attr title "Radio transmission state, vector"
vector 53 AODV30_TnT.H3.wlan[0].radio receptionState:vector ETV
attr interpolationmode sample-hold
attr source receptionStateChanged
attr title "Radio reception state, vector"
vector 54 AODV30_TnT.H3.wlan[0].radio transmissionState:vector ETV
attr interpolationmode sample-hold
attr source transmissionStateChanged
attr title "Radio transmission state, vector"
vector 55 AODV30_TnT.H4.wlan[0].radio receptionState:vector ETV
attr interpolationmode sample-hold
attr source receptionStateChanged
attr title "Radio reception state, vector"
vector 56 AODV30_TnT.H4.wlan[0].radio transmissionState:vector ETV
attr interpolationmode sample-hold
attr source transmissionStateChanged
attr title "Radio transmission state, vector"
vector 57 AODV30_TnT.H5.wlan[0].radio receptionState:vector ETV
attr interpolationmode sample-hold
attr source receptionStateChanged
attr title "Radio reception state, vector"
vector 58 AODV30_TnT.H5.wlan[0].radio transmissionState:vector ETV
attr interpolationmode sample-hold
attr source transmissionStateChanged
attr title "Radio transmission state, vector"
vector 59 AODV30_TnT.H6.wlan[0].radio receptionState:vector ETV
attr interpolationmode sample-hold
attr source receptionStateChanged
attr title "Radio reception state, vector"
vector 60 AODV30_TnT.H6.wlan[0].radio transmissionState:vector ETV
attr interpolationmode sample-hold
attr source transmissionStateChanged
attr title "Radio transmission state, vector"
vector 61 AODV30_TnT.H7.wlan[0].radio receptionState:vector ETV
attr interpolationmode sample-hold
attr source receptionStateChanged
attr title "Radio reception state, vector"
vector 62 AODV30_TnT.H7.wlan[0].radio transmissionState:vector ETV
attr interpolationmode sample-hold
attr source transmissionStateChanged
attr title "Radio transmission state, vector"
vector 63 AODV30_TnT.H8.wlan[0].radio receptionState:vector ETV
attr interpolationmode sample-hold
attr source receptionStateChanged
attr title "Radio reception state, vector"
vector 64 AODV30_TnT.H8.wlan[0].radio transmissionState:vector ETV
attr interpolationmode sample-hold
attr source transmissionStateChanged
attr title "Radio transmission state, vector"
vector 65 AODV30_TnT.H9.wlan[0].radio receptionState:vector ETV
attr interpolationmode sample-hold
attr source receptionStateChanged
attr title "Radio reception state, vector"
vector 66 AODV30_TnT.H9.wlan[0].radio transmissionState:vector ETV
attr interpolationmode sample-hold
attr source transmissionStateChanged
attr title "Radio transmission state, vector"
vector 67 AODV30_TnT.H10.wlan[0].radio receptionState:vector ETV
attr interpolationmode sample-hold
attr source receptionStateChanged
attr title "Radio reception state, vector"
vector 68 AODV30_TnT.H10.wlan[0].radio transmissionState:vector ETV
attr interpolationmode sample-hold
attr source transmissionStateChanged
attr title "Radio transmission state, vector"
vector 69 AODV30_TnT.H11.wlan[0].radio receptionState:vector ETV
attr interpolationmode sample-hold
attr source receptionStateChanged
attr title "Radio reception state, vector"
vector 70 AODV30_TnT.H11.wlan[0].radio transmissionState:vector ETV
attr interpolationmode sample-hold
attr source transmissionStateChanged
attr title "Radio transmission state, vector"
vector 71 AODV30_TnT.H12.wlan[0].radio receptionState:vector ETV
attr interpolationmode sample-hold
attr source receptionStateChanged
attr title "Radio reception state, vector"
vector 72 AODV30_TnT.H12.wlan[0].radio transmissionState:vector ETV
attr interpolationmode sample-hold
attr source transmissionStateChanged
attr title "Radio transmission state, vector"
vector 73 AODV30_TnT.H13.wlan[0].radio receptionState:vector ETV
attr interpolationmode sample-hold
attr source receptionStateChanged
attr title "Radio reception state, vector"
vector 74 AODV30_TnT.H13.wlan[0].radio transmissionState:vector ETV
attr interpolationmode sample-hold
attr source transmissionStateChanged
attr title "Radio transmission state, vector"
vector 75 AODV30_TnT.H14.wlan[0].radio receptionState:vector ETV
attr interpolationmode sample-hold
attr source receptionStateChanged
attr title "Radio reception state, vector"
vector 76 AODV30_TnT.H14.wlan[0].radio transmissionState:vector ETV
attr interpolationmode sample-hold
attr source transmissionStateChanged
attr title "Radio transmission state, vector"
vector 77 AODV30_TnT.H15.wlan[0].radio receptionState:vector ETV
attr interpolationmode sample-hold
attr source receptionStateChanged
attr title "Radio reception state, vector"
vector 78 AODV30_TnT.H15.wlan[0].radio transmissionState:vector ETV
attr interpolationmode sample-hold
attr source transmissionStateChanged
attr title "Radio transmission state, vector"
vector 79 AODV30_TnT.H16.wlan[0].radio receptionState:vector ETV
attr interpolationmode sample-hold
attr source receptionStateChanged
attr title "Radio reception state, vector"
vector 80 AODV30_TnT.H16.wlan[0].radio transmissionState:vector ETV
attr interpolationmode sample-hold
attr source transmissionStateChanged
attr title "Radio transmission state, vector"
vector 81 AODV30_TnT.H17.wlan[0].radio receptionState:vector ETV
attr interpolationmode sample-hold
attr source receptionStateChanged
attr title "Radio reception state, vector"
vector 82 AODV30_TnT.H17.wlan[0].radio transmissionState:vector ETV
attr interpolationmode sample-hold
attr source transmissionStateChanged
attr title "Radio transmission state, vector"
vector 83 AODV30_TnT.H18.wlan[0].radio receptionState:vector ETV
attr interpolationmode sample-hold
attr source receptionStateChanged
attr title "Radio reception state, vector"
vector 84 AODV30_TnT.H18.wlan[0].radio transmissionState:vector ETV
attr interpolationmode sample-hold
attr source transmissionStateChanged
attr title "Radio transmission state, vector"
vector 85 AODV30_TnT.H19.wlan[0].radio receptionState:vector ETV
attr interpolationmode sample-hold
attr source receptionStateChanged
attr title "Radio reception state, vector"
vector 86 AODV30_TnT.H19.wlan[0].radio transmissionState:vector ETV
attr interpolationmode sample-hold
attr source transmissionStateChanged
attr title "Radio transmission state, vector"
vector 87 AODV30_TnT.H20.wlan[0].radio receptionState:vector ETV
attr interpolationmode sample-hold
attr source receptionStateChanged
attr title "Radio reception state, vector"
vector 88 AODV30_TnT.H20.wlan[0].radio transmissionState:vector ETV
attr interpolationmode sample-hold
attr source transmissionStateChanged
attr title "Radio transmission state, vector"
vector 89 AODV30_TnT.Bs2.wlan[0].radio receptionState:vector ETV
attr interpolationmode sample-hold
attr source receptionStateChanged
attr title "Radio reception state, vector"
vector 90 AODV30_TnT.Bs2.wlan[0].radio transmissionState:vector ETV
attr interpolationmode sample-hold
attr source transmissionStateChanged
attr title "Radio transmission state, vector"
vector 91 AODV30_TnT.H21.wlan[0].radio receptionState:vector ETV
attr interpolationmode sample-hold
attr source receptionStateChanged
attr title "Radio reception state, vector"
vector 92 AODV30_TnT.H21.wlan[0].radio transmissionState:vector ETV
attr interpolationmode sample-hold
attr source transmissionStateChanged
attr title "Radio transmission state, vector"
vector 93 AODV30_TnT.H22.wlan[0].radio receptionState:vector ETV
attr interpolationmode sample-hold
attr source receptionStateChanged
attr title "Radio reception state, vector"
vector 94 AODV30_TnT.H22.wlan[0].radio transmissionState:vector ETV
attr interpolationmode sample-hold
attr source transmissionStateChanged
attr title "Radio transmission state, vector"
vector 95 AODV30_TnT.H23.wlan[0].radio receptionState:vector ETV
attr interpolationmode sample-hold
attr source receptionStateChanged
attr title "Radio reception state, vector"
vector 96 AODV30_TnT.H23.wlan[0].radio transmissionState:vector ETV
attr interpolationmode sample-hold
attr source transmissionStateChanged
attr title "Radio transmission state, vector"
vector 97 AODV30_TnT.H24.wlan[0].radio receptionState:vector ETV
attr interpolationmode sample-hold
attr source receptionStateChanged
attr title "Radio reception state, vector"
vector 98 AODV30_TnT.H24.wlan[0].radio transmissionState:vector ETV
attr interpolationmode sample-hold
attr source transmissionStateChanged
attr title "Radio transmission state, vector"
vector 99 AODV30_TnT.H25.wlan[0].radio receptionState:vector ETV
attr interpolationmode sample-hold
attr source receptionStateChanged
attr title "Radio reception state, vector"
vector 100 AODV30_TnT.H25.wlan[0].radio transmissionState:vector ETV
attr interpolationmode sample-hold
attr source transmissionStateChanged
attr title "Radio transmission state, vector"
vector 101 AODV30_TnT.H26.wlan[0].radio receptionState:vector ETV
attr interpolationmode sample-hold
attr source receptionStateChanged
attr title "Radio reception state, vector"
vector 102 AODV30_TnT.H26.wlan[0].radio transmissionState:vector ETV
attr interpolationmode sample-hold
attr source transmissionStateChanged
attr title "Radio transmission state, vector"
vector 103 AODV30_TnT.H27.wlan[0].radio receptionState:vector ETV
attr interpolationmode sample-hold
attr source receptionStateChanged
attr title "Radio reception state, vector"
vector 104 AODV30_TnT.H27.wlan[0].radio transmissionState:vector ETV
attr interpolationmode sample-hold
attr source transmissionStateChanged
attr title "Radio transmission state, vector"
vector 105 AODV30_TnT.H28.wlan[0].radio receptionState:vector ETV
attr interpolationmode sample-hold
attr source receptionStateChanged
attr title "Radio reception state, vector"
vector 106 AODV30_TnT.H28.wlan[0].radio transmissionState:vector ETV
attr interpolationmode sample-hold
attr source transmissionStateChanged
attr title "Radio transmission state, vector"
vector 107 AODV30_TnT.H29.wlan[0].radio receptionState:vector ETV
attr interpolationmode sample-hold
attr source receptionStateChanged
attr title "Radio reception state, vector"
vector 108 AODV30_TnT.H29.wlan[0].radio transmissionState:vector ETV
attr interpolationmode sample-hold
attr source transmissionStateChanged
attr title "Radio transmission state, vector"
vector 109 AODV30_TnT.H30.wlan[0].radio receptionState:vector ETV
attr interpolationmode sample-hold
attr source receptionStateChanged
attr title "Radio reception state, vector"
vector 110 AODV30_TnT.H30.wlan[0].radio transmissionState:vector ETV
attr interpolationmode sample-hold
attr source transmissionStateChanged
attr title "Radio transmission state, vector"
vector 111 AODV30_TnT.S5.app[0] packetSent:vector(packetBytes) ETV
attr interpolationmode none
attr source packetSent
attr title "packets sent, vector(packetBytes)"
vector 112 AODV30_TnT.S1.app[0] packetSent:vector(packetBytes) ETV
attr interpolationmode none
attr source packetSent
attr title "packets sent, vector(packetBytes)"
vector 113 AODV30_TnT.S2.app[0] packetSent:vector(packetBytes) ETV
attr interpolationmode none
attr source packetSent
attr title "packets sent, vector(packetBytes)"
vector 114 AODV30_TnT.S3.app[0] packetSent:vector(packetBytes) ETV
attr interpolationmode none
attr source packetSent
attr title "packets sent, vector(packetBytes)"
vector 115 AODV30_TnT.S4.app[0] packetSent:vector(packetBytes) ETV
attr interpolationmode none
attr source packetSent
attr title "packets sent, vector(packetBytes)"
vector 116 AODV30_TnT.S5.udp packetSent:vector(packetBytes) ETV
attr interpolationmode none
attr source packetSent
attr title "packets sent, vector(packetBytes)"
vector 117 AODV30_TnT.S1.udp packetSent:vector(packetBytes) ETV
attr interpolationmode none
attr source packetSent
attr title "packets sent, vector(packetBytes)"
vector 118 AODV30_TnT.S2.udp packetSent:vector(packetBytes) ETV
attr interpolationmode none
attr source packetSent
attr title "packets sent, vector(packetBytes)"
vector 119 AODV30_TnT.S3.udp packetSent:vector(packetBytes) ETV
attr interpolationmode none
attr source packetSent
attr title "packets sent, vector(packetBytes)"
vector 120 AODV30_TnT.S4.udp packetSent:vector(packetBytes) ETV
attr interpolationmode none
attr source packetSent
attr title "packets sent, vector(packetBytes)"
vector 121 AODV30_TnT.S3.wlan[0].mac rcvdPkFromHl:vector(packetBytes) ETV
attr interpolationmode none
attr source packetReceivedFromUpper
attr title "packets received from higher layer, vector(packetBytes)"
vector 122 AODV30_TnT.S3.wlan[0].mac.queue packetPushed:vector(packetBytes) ETV
attr interpolationmode none
attr title "packet pushed, vector(packetBytes)"
vector 123 AODV30_TnT.S3.wlan[0].mac.queue queueLength:vector ETV
attr interpolationmode sample-hold
attr source "count(packetPushed) - count(packetPopped) - count(packetRemoved) - count(packetDropped)"
attr title "queue length, vector"
vector 124 AODV30_TnT.S3.wlan[0].mac.queue packetPopped:vector(packetBytes) ETV
attr interpolationmode none
attr title "packet popped, vector(packetBytes)"
vector 125 AODV30_TnT.S3.wlan[0].mac.queue queueingTime:vector ETV
attr interpolationmode none
attr source queueingTime(packetPopped)
attr title "queueing times, vector"
attr unit s
vector 126 AODV30_TnT.S3.wlan[0].mac sentDownPk:vector(packetBytes) ETV
attr interpolationmode none
attr source packetSentToLower
attr title "packets sent to lower layer, vector(packetBytes)"
vector 127 AODV30_TnT.H6.wlan[0].mac rcvdPkFromLl:vector(packetBytes) ETV
attr interpolationmode none
attr source packetReceivedFromLower
attr title "packets received from lower layer, vector(packetBytes)"
vector 128 AODV30_TnT.H6.wlan[0].mac passedUpPk:vector(packetBytes) ETV
attr interpolationmode none
attr source packetSentToUpper
attr title "packets passed to higher layer, vector(packetBytes)"
vector 129 AODV30_TnT.H6.udp packetReceived:vector(packetBytes) ETV
attr interpolationmode none
attr source packetReceived
attr title "packets received, vector(packetBytes)"
vector 130 AODV30_TnT.H6.udp passedUpPk:vector(count) ETV
attr interpolationmode none
attr source packetSentToUpper
attr title "packets passed up, vector(count)"
vector 131 AODV30_TnT.H10.wlan[0].mac rcvdPkFromLl:vector(packetBytes) ETV
attr interpolationmode none
attr source packetReceivedFromLower
attr title "packets received from lower layer, vector(packetBytes)"
vector 132 AODV30_TnT.H10.wlan[0].mac passedUpPk:vector(packetBytes) ETV
attr interpolationmode none
attr source packetSentToUpper
attr title "packets passed to higher layer, vector(packetBytes)"
vector 133 AODV30_TnT.H10.udp packetReceived:vector(packetBytes) ETV
attr interpolationmode none
attr source packetReceived
attr title "packets received, vector(packetBytes)"
vector 134 AODV30_TnT.H10.udp passedUpPk:vector(count) ETV
attr interpolationmode none
attr source packetSentToUpper
attr title "packets passed up, vector(count)"
vector 135 AODV30_TnT.H27.wlan[0].mac rcvdPkFromLl:vector(packetBytes) ETV
attr interpolationmode none
attr source packetReceivedFromLower
attr title "packets received from lower layer, vector(packetBytes)"
vector 136 AODV30_TnT.H27.wlan[0].mac passedUpPk:vector(packetBytes) ETV
attr interpolationmode none
attr source packetSentToUpper
attr title "packets passed to higher layer, vector(packetBytes)"
vector 137 AODV30_TnT.H27.udp packetReceived:vector(packetBytes) ETV
attr interpolationmode none
attr source packetReceived
attr title "packets received, vector(packetBytes)"
vector 138 AODV30_TnT.H27.udp passedUpPk:vector(count) ETV
attr interpolationmode none
attr source packetSentToUpper
attr title "packets passed up, vector(count)"
vector 139 AODV30_TnT.S2.wlan[0].mac rcvdPkFromLl:vector(packetBytes) ETV
attr interpolationmode none
attr source packetReceivedFromLower
attr title "packets received from lower layer, vector(packetBytes)"
vector 140 AODV30_TnT.S2.wlan[0].mac passedUpPk:vector(packetBytes) ETV
attr interpolationmode none
attr source packetSentToUpper
attr title "packets passed to higher layer, vector(packetBytes)"
vector 141 AODV30_TnT.S2.udp packetReceived:vector(packetBytes) ETV
attr interpolationmode none
attr source packetReceived
attr title "packets received, vector(packetBytes)"
vector 142 AODV30_TnT.S2.udp passedUpPk:vector(count) ETV
attr interpolationmode none
attr source packetSentToUpper
attr title "packets passed up, vector(count)"
vector 143 AODV30_TnT.H30.wlan[0].mac rcvdPkFromLl:vector(packetBytes) ETV
attr interpolationmode none
attr source packetReceivedFromLower
attr title "packets received from lower layer, vector(packetBytes)"
vector 144 AODV30_TnT.H30.wlan[0].mac passedUpPk:vector(packetBytes) ETV
attr interpolationmode none
attr source packetSentToUpper
attr title "packets passed to higher layer, vector(packetBytes)"
vector 145 AODV30_TnT.H30.udp packetReceived:vector(packetBytes) ETV
attr interpolationmode none
attr source packetReceived
attr title "packets received, vector(packetBytes)"
vector 146 AODV30_TnT.H30.udp passedUpPk:vector(count) ETV
attr interpolationmode none
attr source packetSentToUpper
attr title "packets passed up, vector(count)"
vector 147 AODV30_TnT.H12.wlan[0].mac rcvdPkFromLl:vector(packetBytes) ETV
attr interpolationmode none
attr source packetReceivedFromLower
attr title "packets received from lower layer, vector(packetBytes)"
vector 148 AODV30_TnT.H12.wlan[0].mac passedUpPk:vector(packetBytes) ETV
attr interpolationmode none
attr source packetSentToUpper
attr title "packets passed to higher layer, vector(packetBytes)"
vector 149 AODV30_TnT.H12.udp packetReceived:vector(packetBytes) ETV
attr interpolationmode none
attr source packetReceived
attr title "packets received, vector(packetBytes)"
vector 150 AODV30_TnT.H12.udp passedUpPk:vector(count) ETV
attr interpolationmode none
attr source packetSentToUpper
attr title "packets passed up, vector(count)"
vector 151 AODV30_TnT.H14.wlan[0].mac rcvdPkFromLl:vector(packetBytes) ETV
attr interpolationmode none
attr source packetReceivedFromLower
attr title "packets received from lower layer, vector(packetBytes)"
vector 152 AODV30_TnT.H14.wlan[0].mac passedUpPk:vector(packetBytes) ETV
attr interpolationmode none
attr source packetSentToUpper
attr title "packets passed to higher layer, vector(packetBytes)"
vector 153 AODV30_TnT.H14.udp packetReceived:vector(packetBytes) ETV
attr interpolationmode none
attr source packetReceived
attr title "packets received, vector(packetBytes)"
vector 154 AODV30_TnT.H14.udp passedUpPk:vector(count) ETV
attr interpolationmode none
attr source packetSentToUpper
attr title "packets passed up, vector(count)"
vector 155 AODV30_TnT.H16.wlan[0].mac rcvdPkFromLl:vector(packetBytes) ETV
attr interpolationmode none
attr source packetReceivedFromLower
attr title "packets received from lower layer, vector(packetBytes)"
vector 156 AODV30_TnT.H16.wlan[0].mac passedUpPk:vector(packetBytes) ETV
attr interpolationmode none
attr source packetSentToUpper
attr title "packets passed to higher layer, vector(packetBytes)"
vector 157 AODV30_TnT.H16.udp packetReceived:vector(packetBytes) ETV
attr interpolationmode none
attr source packetReceived
attr title "packets received, vector(packetBytes)"
vector 158 AODV30_TnT.H16.udp passedUpPk:vector(count) ETV
attr interpolationmode none
attr source packetSentToUpper
attr title "packets passed up, vector(count)"
vector 159 AODV30_TnT.H23.wlan[0].mac rcvdPkFromLl:vector(packetBytes) ETV
attr interpolationmode none
attr source packetReceivedFromLower
attr title "packets received from lower layer, vector(packetBytes)"
vector 160 AODV30_TnT.H23.wlan[0].mac passedUpPk:vector(packetBytes) ETV
attr interpolationmode none
attr source packetSentToUpper
attr title "packets passed to higher layer, vector(packetBytes)"
vector 161 AODV30_TnT.H23.udp packetReceived:vector(packetBytes) ETV
attr interpolationmode none
attr source packetReceived
attr title "packets received, vector(packetBytes)"
vector 162 AODV30_TnT.H23.udp passedUpPk:vector(count) ETV
attr interpolationmode none
attr source packetSentToUpper
attr title "packets passed up, vector(count)"
vector 163 AODV30_TnT.S1.wlan[0].mac rcvdPkFromHl:vector(packetBytes) ETV
attr interpolationmode none
attr source packetReceivedFromUpper
attr title "packets received from higher layer, vector(packetBytes)"
vector 164 AODV30_TnT.S1.wlan[0].mac.queue packetPushed:vector(packetBytes) ETV
attr interpolationmode none
attr title "packet pushed, vector(packetBytes)"
vector 165 AODV30_TnT.S1.wlan[0].mac.queue queueLength:vector ETV
attr interpolationmode sample-hold
attr source "count(packetPushed) - count(packetPopped) - count(packetRemoved) - count(packetDropped)"
attr title "queue length, vector"
vector 166 AODV30_TnT.S1.wlan[0].mac.queue packetPopped:vector(packetBytes) ETV
attr interpolationmode none
attr title "packet popped, vector(packetBytes)"
vector 167 AODV30_TnT.S1.wlan[0].mac.queue queueingTime:vector ETV
attr interpolationmode none
attr source queueingTime(packetPopped)
attr title "queueing times, vector"
attr unit s
vector 168 AODV30_TnT.S1.wlan[0].mac sentDownPk:vector(packetBytes) ETV
attr interpolationmode none
attr source packetSentToLower
attr title "packets sent to lower layer, vector(packetBytes)"
vector 169 AODV30_TnT.H12.udp packetSent:vector(packetBytes) ETV
attr interpolationmode none
attr source packetSent
attr title "packets sent, vector(packetBytes)"
vector 170 AODV30_TnT.H12.wlan[0].mac rcvdPkFromHl:vector(packetBytes) ETV
attr interpolationmode none
attr source packetReceivedFromUpper
attr title "packets received from higher layer, vector(packetBytes)"
vector 171 AODV30_TnT.H12.wlan[0].mac.queue packetPushed:vector(packetBytes) ETV
attr interpolationmode none
attr title "packet pushed, vector(packetBytes)"
vector 172 AODV30_TnT.H12.wlan[0].mac.queue queueLength:vector ETV
attr interpolationmode sample-hold
attr source "count(packetPushed) - count(packetPopped) - count(packetRemoved) - count(packetDropped)"
attr title "queue length, vector"
vector 173 AODV30_TnT.H12.wlan[0].mac.queue packetPopped:vector(packetBytes) ETV
attr interpolationmode none
attr title "packet popped, vector(packetBytes)"
vector 174 AODV30_TnT.H12.wlan[0].mac.queue queueingTime:vector ETV
attr interpolationmode none
attr source queueingTime(packetPopped)
attr title "queueing times, vector"
attr unit s
vector 175 AODV30_TnT.H12.wlan[0].mac sentDownPk:vector(packetBytes) ETV
attr interpolationmode none
attr source packetSentToLower
attr title "packets sent to lower layer, vector(packetBytes)"
vector 176 AODV30_TnT.H29.wlan[0].mac rcvdPkFromLl:vector(packetBytes) ETV
attr interpolationmode none
attr source packetReceivedFromLower
attr title "packets received from lower layer, vector(packetBytes)"
vector 177 AODV30_TnT.H29.wlan[0].mac passedUpPk:vector(packetBytes) ETV
attr interpolationmode none
attr source packetSentToUpper
attr title "packets passed to higher layer, vector(packetBytes)"
vector 178 AODV30_TnT.H29.udp packetReceived:vector(packetBytes) ETV
attr interpolationmode none
attr source packetReceived
attr title "packets received, vector(packetBytes)"
vector 179 AODV30_TnT.H29.udp passedUpPk:vector(count) ETV
attr interpolationmode none
attr source packetSentToUpper
attr title "packets passed up, vector(count)"
vector 180 AODV30_TnT.H8.wlan[0].mac rcvdPkFromLl:vector(packetBytes) ETV
attr interpolationmode none
attr source packetReceivedFromLower
attr title "packets received from lower layer, vector(packetBytes)"
vector 181 AODV30_TnT.H8.wlan[0].mac passedUpPk:vector(packetBytes) ETV
attr interpolationmode none
attr source packetSentToUpper
attr title "packets passed to higher layer, vector(packetBytes)"
vector 182 AODV30_TnT.H8.udp packetReceived:vector(packetBytes) ETV
attr interpolationmode none
attr source packetReceived
attr title "packets received, vector(packetBytes)"
vector 183 AODV30_TnT.H8.udp passedUpPk:vector(count) ETV
attr interpolationmode none
attr source packetSentToUpper
attr title "packets passed up, vector(count)"
vector 184 AODV30_TnT.H1.wlan[0].mac rcvdPkFromLl:vector(packetBytes) ETV
attr interpolationmode none
attr source packetReceivedFromLower
attr title "packets received from lower layer, vector(packetBytes)"
vector 185 AODV30_TnT.H1.wlan[0].mac passedUpPk:vector(packetBytes) ETV
attr interpolationmode none
attr source packetSentToUpper
attr title "packets passed to higher layer, vector(packetBytes)"
vector 186 AODV30_TnT.H1.udp packetReceived:vector(packetBytes) ETV
attr interpolationmode none
attr source packetReceived
attr title "packets received, vector(packetBytes)"
vector 187 AODV30_TnT.H1.udp passedUpPk:vector(count) ETV
attr interpolationmode none
attr source packetSentToUpper
attr title "packets passed up, vector(count)"
vector 188 AODV30_TnT.H3.wlan[0].mac rcvdPkFromLl:vector(packetBytes) ETV
attr interpolationmode none
attr source packetReceivedFromLower
attr title "packets received from lower layer, vector(packetBytes)"
vector 189 AODV30_TnT.H3.wlan[0].mac passedUpPk:vector(packetBytes) ETV
attr interpolationmode none
attr source packetSentToUpper
attr title "packets passed to higher layer, vector(packetBytes)"
vector 190 AODV30_TnT.H3.udp packetReceived:vector(packetBytes) ETV
attr interpolationmode none
attr source packetReceived
attr title "packets received, vector(packetBytes)"
vector 191 AODV30_TnT.H3.udp passedUpPk:vector(count) ETV
attr interpolationmode none
attr source packetSentToUpper
attr title "packets passed up, vector(count)"
vector 192 AODV30_TnT.H15.wlan[0].mac rcvdPkFromLl:vector(packetBytes) ETV
attr interpolationmode none
attr source packetReceivedFromLower
attr title "packets received from lower layer, vector(packetBytes)"
vector 193 AODV30_TnT.H15.wlan[0].mac passedUpPk:vector(packetBytes) ETV
attr interpolationmode none
attr source packetSentToUpper
attr title "packets passed to higher layer, vector(packetBytes)"
vector 194 AODV30_TnT.H15.udp packetReceived:vector(packetBytes) ETV
attr interpolationmode none
attr source packetReceived
attr title "packets received, vector(packetBytes)"
vector 195 AODV30_TnT.H15.udp passedUpPk:vector(count) ETV
attr interpolationmode none
attr source packetSentToUpper
attr title "packets passed up, vector(count)"
vector 196 AODV30_TnT.Bs2.wlan[0].mac rcvdPkFromLl:vector(packetBytes) ETV
attr interpolationmode none
attr source packetReceivedFromLower
attr title "packets received from lower layer, vector(packetBytes)"
vector 197 AODV30_TnT.Bs2.wlan[0].mac passedUpPk:vector(packetBytes) ETV
attr interpolationmode none
attr source packetSentToUpper
attr title "packets passed to higher layer, vector(packetBytes)"
vector 198 AODV30_TnT.Bs2.udp packetReceived:vector(packetBytes) ETV
attr interpolationmode none
attr source packetReceived
attr title "packets received, vector(packetBytes)"
vector 199 AODV30_TnT.Bs2.udp passedUpPk:vector(count) ETV
attr interpolationmode none
attr source packetSentToUpper
attr title "packets passed up, vector(count)"
vector 200 AODV30_TnT.Bs2.udp packetSent:vector(packetBytes) ETV
attr interpolationmode none
attr source packetSent
attr title "packets sent, vector(packetBytes)"
vector 201 AODV30_TnT.Bs2.ipv4.arp arpRequestSent:vector(packetBytes) ETV
attr source arpRequestSent
attr title "ARP request sent, vector(packetBytes)"
vector 202 AODV30_TnT.Bs2.wlan[0].mac rcvdPkFromHl:vector(packetBytes) ETV
attr interpolationmode none
attr source packetReceivedFromUpper
attr title "packets received from higher layer, vector(packetBytes)"
vector 203 AODV30_TnT.Bs2.wlan[0].mac.queue packetPushed:vector(packetBytes) ETV
attr interpolationmode none
attr title "packet pushed, vector(packetBytes)"
vector 204 AODV30_TnT.Bs2.wlan[0].mac.queue queueLength:vector ETV
attr interpolationmode sample-hold
attr source "count(packetPushed) - count(packetPopped) - count(packetRemoved) - count(packetDropped)"
attr title "queue length, vector"
vector 205 AODV30_TnT.Bs2.wlan[0].mac.queue packetPopped:vector(packetBytes) ETV
attr interpolationmode none
attr title "packet popped, vector(packetBytes)"
vector 206 AODV30_TnT.Bs2.wlan[0].mac.queue queueingTime:vector ETV
attr interpolationmode none
attr source queueingTime(packetPopped)
attr title "queueing times, vector"
attr unit s
vector 207 AODV30_TnT.Bs2.wlan[0].mac sentDownPk:vector(packetBytes) ETV
attr interpolationmode none
attr source packetSentToLower
attr title "packets sent to lower layer, vector(packetBytes)"
vector 208 AODV30_TnT.S3.wlan[0].mac rcvdPkFromLl:vector(packetBytes) ETV
attr interpolationmode none
attr source packetReceivedFromLower
attr title "packets received from lower layer, vector(packetBytes)"
vector 209 AODV30_TnT.S3.wlan[0].mac passedUpPk:vector(packetBytes) ETV
attr interpolationmode none
attr source packetSentToUpper
attr title "packets passed to higher layer, vector(packetBytes)"
vector 210 AODV30_TnT.S3.udp packetReceived:vector(packetBytes) ETV
attr interpolationmode none
attr source packetReceived
attr title "packets received, vector(packetBytes)"
vector 211 AODV30_TnT.S3.udp passedUpPk:vector(count) ETV
attr interpolationmode none
attr source packetSentToUpper
attr title "packets passed up, vector(count)"
vector 212 AODV30_TnT.H11.wlan[0].mac rcvdPkFromLl:vector(packetBytes) ETV
attr interpolationmode none
attr source packetReceivedFromLower
attr title "packets received from lower layer, vector(packetBytes)"
vector 213 AODV30_TnT.H11.wlan[0].mac passedUpPk:vector(packetBytes) ETV
attr interpolationmode none
attr source packetSentToUpper
attr title "packets passed to higher layer, vector(packetBytes)"
vector 214 AODV30_TnT.H11.udp packetReceived:vector(packetBytes) ETV
attr interpolationmode none
attr source packetReceived
attr title "packets received, vector(packetBytes)"
vector 215 AODV30_TnT.H11.udp passedUpPk:vector(count) ETV
attr interpolationmode none
attr source packetSentToUpper
attr title "packets passed up, vector(count)"
vector 216 AODV30_TnT.S4.wlan[0].mac rcvdPkFromLl:vector(packetBytes) ETV
attr interpolationmode none
attr source packetReceivedFromLower
attr title "packets received from lower layer, vector(packetBytes)"
vector 217 AODV30_TnT.S4.wlan[0].mac passedUpPk:vector(packetBytes) ETV
attr interpolationmode none
attr source packetSentToUpper
attr title "packets passed to higher layer, vector(packetBytes)"
vector 218 AODV30_TnT.S4.udp packetReceived:vector(packetBytes) ETV
attr interpolationmode none
attr source packetReceived
attr title "packets received, vector(packetBytes)"
vector 219 AODV30_TnT.S4.udp passedUpPk:vector(count) ETV
attr interpolationmode none
attr source packetSentToUpper
attr title "packets passed up, vector(count)"
vector 220 AODV30_TnT.H9.wlan[0].mac rcvdPkFromLl:vector(packetBytes) ETV
attr interpolationmode none
attr source packetReceivedFromLower
attr title "packets received from lower layer, vector(packetBytes)"
vector 221 AODV30_TnT.H9.wlan[0].mac passedUpPk:vector(packetBytes) ETV
attr interpolationmode none
attr source packetSentToUpper
attr title "packets passed to higher layer, vector(packetBytes)"
vector 222 AODV30_TnT.H9.udp packetReceived:vector(packetBytes) ETV
attr interpolationmode none
attr source packetReceived
attr title "packets received, vector(packetBytes)"
vector 223 AODV30_TnT.H9.udp passedUpPk:vector(count) ETV
attr interpolationmode none
attr source packetSentToUpper
attr title "packets passed up, vector(count)"
vector 224 AODV30_TnT.S4.wlan[0].mac rcvdPkFromHl:vector(packetBytes) ETV
attr interpolationmode none
attr source packetReceivedFromUpper
attr title "packets received from higher layer, vector(packetBytes)"
vector 225 AODV30_TnT.S4.wlan[0].mac.queue packetPushed:vector(packetBytes) ETV
attr interpolationmode none
attr title "packet pushed, vector(packetBytes)"
vector 226 AODV30_TnT.S4.wlan[0].mac.queue queueLength:vector ETV
attr interpolationmode sample-hold
attr source "count(packetPushed) - count(packetPopped) - count(packetRemoved) - count(packetDropped)"
attr title "queue length, vector"
vector 227 AODV30_TnT.S4.wlan[0].mac.queue packetPopped:vector(packetBytes) ETV
attr interpolationmode none
attr title "packet popped, vector(packetBytes)"
vector 228 AODV30_TnT.S4.wlan[0].mac.queue queueingTime:vector ETV
attr interpolationmode none
attr source queueingTime(packetPopped)
attr title "queueing times, vector"
attr unit s
vector 229 AODV30_TnT.S4.wlan[0].mac sentDownPk:vector(packetBytes) ETV
attr interpolationmode none
attr source packetSentToLower
attr title "packets sent to lower layer, vector(packetBytes)"
vector 230 AODV30_TnT.H12.ipv4.arp arpReplySent:vector(packetBytes) ETV
attr source arpReplySent
attr title "ARP replies sent, vector(packetBytes)"
vector 231 AODV30_TnT.H25.wlan[0].mac rcvdPkFromLl:vector(packetBytes) ETV
attr interpolationmode none
attr source packetReceivedFromLower
attr title "packets received from lower layer, vector(packetBytes)"
vector 232 AODV30_TnT.H25.wlan[0].mac passedUpPk:vector(packetBytes) ETV
attr interpolationmode none
attr source packetSentToUpper
attr title "packets passed to higher layer, vector(packetBytes)"
vector 233 AODV30_TnT.H21.wlan[0].mac rcvdPkFromLl:vector(packetBytes) ETV
attr interpolationmode none
attr source packetReceivedFromLower
attr title "packets received from lower layer, vector(packetBytes)"
vector 234 AODV30_TnT.H21.wlan[0].mac passedUpPk:vector(packetBytes) ETV
attr interpolationmode none
attr source packetSentToUpper
attr title "packets passed to higher layer, vector(packetBytes)"
vector 235 AODV30_TnT.H27.wlan[0].mac packetDropNotAddressedToUs:vector(packetBytes) ETV
attr interpolationmode none
attr source packetDropReasonIsNotAddressedToUs(packetDropped)
attr title "packet drop: not addressed to us, vector(packetBytes)"
vector 236 AODV30_TnT.H14.wlan[0].mac packetDropNotAddressedToUs:vector(packetBytes) ETV
attr interpolationmode none
attr source packetDropReasonIsNotAddressedToUs(packetDropped)
attr title "packet drop: not addressed to us, vector(packetBytes)"
vector 237 AODV30_TnT.H15.wlan[0].mac packetDropNotAddressedToUs:vector(packetBytes) ETV
attr interpolationmode none
attr source packetDropReasonIsNotAddressedToUs(packetDropped)
attr title "packet drop: not addressed to us, vector(packetBytes)"
vector 238 AODV30_TnT.S3.wlan[0].mac packetDropNotAddressedToUs:vector(packetBytes) ETV
attr interpolationmode none
attr source packetDropReasonIsNotAddressedToUs(packetDropped)
attr title "packet drop: not addressed to us, vector(packetBytes)"
vector 239 AODV30_TnT.H30.wlan[0].mac packetDropNotAddressedToUs:vector(packetBytes) ETV
attr interpolationmode none
attr source packetDropReasonIsNotAddressedToUs(packetDropped)
attr title "packet drop: not addressed to us, vector(packetBytes)"
vector 240 AODV30_TnT.H6.wlan[0].mac packetDropNotAddressedToUs:vector(packetBytes) ETV
attr interpolationmode none
attr source packetDropReasonIsNotAddressedToUs(packetDropped)
attr title "packet drop: not addressed to us, vector(packetBytes)"
vector 241 AODV30_TnT.H11.wlan[0].mac packetDropNotAddressedToUs:vector(packetBytes) ETV
attr interpolationmode none
attr source packetDropReasonIsNotAddressedToUs(packetDropped)
attr title "packet drop: not addressed to us, vector(packetBytes)"
vector 242 AODV30_TnT.S4.wlan[0].mac packetDropNotAddressedToUs:vector(packetBytes) ETV
attr interpolationmode none
attr source packetDropReasonIsNotAddressedToUs(packetDropped)
attr title "packet drop: not addressed to us, vector(packetBytes)"
vector 243 AODV30_TnT.H9.wlan[0].mac packetDropNotAddressedToUs:vector(packetBytes) ETV
attr interpolationmode none
attr source packetDropReasonIsNotAddressedToUs(packetDropped)
attr title "packet drop: not addressed to us, vector(packetBytes)"
vector 244 AODV30_TnT.H16.udp packetSent:vector(packetBytes) ETV
attr interpolationmode none
attr source packetSent
attr title "packets sent, vector(packetBytes)"
vector 245 AODV30_TnT.H16.wlan[0].mac rcvdPkFromHl:vector(packetBytes) ETV
attr interpolationmode none
attr source packetReceivedFromUpper
attr title "packets received from higher layer, vector(packetBytes)"
vector 246 AODV30_TnT.H16.wlan[0].mac.queue packetPushed:vector(packetBytes) ETV
attr interpolationmode none
attr title "packet pushed, vector(packetBytes)"
vector 247 AODV30_TnT.H16.wlan[0].mac.queue queueLength:vector ETV
attr interpolationmode sample-hold
attr source "count(packetPushed) - count(packetPopped) - count(packetRemoved) - count(packetDropped)"
attr title "queue length, vector"
vector 248 AODV30_TnT.H16.wlan[0].mac.queue packetPopped:vector(packetBytes) ETV
attr interpolationmode none
attr title "packet popped, vector(packetBytes)"
vector 249 AODV30_TnT.H16.wlan[0].mac.queue queueingTime:vector ETV
attr interpolationmode none
attr source queueingTime(packetPopped)
attr title "queueing times, vector"
attr unit s
vector 250 AODV30_TnT.H16.wlan[0].mac sentDownPk:vector(packetBytes) ETV
attr interpolationmode none
attr source packetSentToLower
attr title "packets sent to lower layer, vector(packetBytes)"
vector 251 AODV30_TnT.H25.wlan[0].mac packetDropNotAddressedToUs:vector(packetBytes) ETV
attr interpolationmode none
attr source packetDropReasonIsNotAddressedToUs(packetDropped)
attr title "packet drop: not addressed to us, vector(packetBytes)"
vector 252 AODV30_TnT.H21.wlan[0].mac packetDropNotAddressedToUs:vector(packetBytes) ETV
attr interpolationmode none
attr source packetDropReasonIsNotAddressedToUs(packetDropped)
attr title "packet drop: not addressed to us, vector(packetBytes)"
vector 253 AODV30_TnT.S2.wlan[0].mac rcvdPkFromHl:vector(packetBytes) ETV
attr interpolationmode none
attr source packetReceivedFromUpper
attr title "packets received from higher layer, vector(packetBytes)"
vector 254 AODV30_TnT.S2.wlan[0].mac.queue packetPushed:vector(packetBytes) ETV
attr interpolationmode none
attr title "packet pushed, vector(packetBytes)"
vector 255 AODV30_TnT.S2.wlan[0].mac.queue queueLength:vector ETV
attr interpolationmode sample-hold
attr source "count(packetPushed) - count(packetPopped) - count(packetRemoved) - count(packetDropped)"
attr title "queue length, vector"
vector 256 AODV30_TnT.S2.wlan[0].mac.queue packetPopped:vector(packetBytes) ETV
attr interpolationmode none
attr title "packet popped, vector(packetBytes)"
vector 257 AODV30_TnT.S2.wlan[0].mac.queue queueingTime:vector ETV
attr interpolationmode none
attr source queueingTime(packetPopped)
attr title "queueing times, vector"
attr unit s
vector 258 AODV30_TnT.S2.wlan[0].mac sentDownPk:vector(packetBytes) ETV
attr interpolationmode none
attr source packetSentToLower
attr title "packets sent to lower layer, vector(packetBytes)"
vector 259 AODV30_TnT.H17.wlan[0].mac rcvdPkFromLl:vector(packetBytes) ETV
attr interpolationmode none
attr source packetReceivedFromLower
attr title "packets received from lower layer, vector(packetBytes)"
vector 260 AODV30_TnT.H17.wlan[0].mac passedUpPk:vector(packetBytes) ETV
attr interpolationmode none
attr source packetSentToUpper
attr title "packets passed to higher layer, vector(packetBytes)"
vector 261 AODV30_TnT.H17.udp packetReceived:vector(packetBytes) ETV
attr interpolationmode none
attr source packetReceived
attr title "packets received, vector(packetBytes)"
vector 262 AODV30_TnT.H17.udp passedUpPk:vector(count) ETV
attr interpolationmode none
attr source packetSentToUpper
attr title "packets passed up, vector(count)"
vector 263 AODV30_TnT.H13.wlan[0].mac rcvdPkFromLl:vector(packetBytes) ETV
attr interpolationmode none
attr source packetReceivedFromLower
attr title "packets received from lower layer, vector(packetBytes)"
vector 264 AODV30_TnT.H13.wlan[0].mac passedUpPk:vector(packetBytes) ETV
attr interpolationmode none
attr source packetSentToUpper
attr title "packets passed to higher layer, vector(packetBytes)"
vector 265 AODV30_TnT.H13.udp packetReceived:vector(packetBytes) ETV
attr interpolationmode none
attr source packetReceived
attr title "packets received, vector(packetBytes)"
vector 266 AODV30_TnT.H13.udp passedUpPk:vector(count) ETV
attr interpolationmode none
attr source packetSentToUpper
attr title "packets passed up, vector(count)"
vector 267 AODV30_TnT.Bs1.wlan[0].mac rcvdPkFromLl:vector(packetBytes) ETV
attr interpolationmode none
attr source packetReceivedFromLower
attr title "packets received from lower layer, vector(packetBytes)"
vector 268 AODV30_TnT.Bs1.wlan[0].mac passedUpPk:vector(packetBytes) ETV
attr interpolationmode none
attr source packetSentToUpper
attr title "packets passed to higher layer, vector(packetBytes)"
vector 269 AODV30_TnT.Bs1.udp packetReceived:vector(packetBytes) ETV
attr interpolationmode none
attr source packetReceived
attr title "packets received, vector(packetBytes)"
vector 270 AODV30_TnT.Bs1.udp passedUpPk:vector(count) ETV
attr interpolationmode none
attr source packetSentToUpper
attr title "packets passed up, vector(count)"
vector 271 AODV30_TnT.H19.wlan[0].mac rcvdPkFromLl:vector(packetBytes) ETV
attr interpolationmode none
attr source packetReceivedFromLower
attr title "packets received from lower layer, vector(packetBytes)"
vector 272 AODV30_TnT.H19.wlan[0].mac passedUpPk:vector(packetBytes) ETV
attr interpolationmode none
attr source packetSentToUpper
attr title "packets passed to higher layer, vector(packetBytes)"
vector 273 AODV30_TnT.H19.udp packetReceived:vector(packetBytes) ETV
attr interpolationmode none
attr source packetReceived
attr title "packets received, vector(packetBytes)"
vector 274 AODV30_TnT.H19.udp passedUpPk:vector(count) ETV
attr interpolationmode none
attr source packetSentToUpper
attr title "packets passed up, vector(count)"
vector 275 AODV30_TnT.S5.wlan[0].mac rcvdPkFromHl:vector(packetBytes) ETV
attr interpolationmode none
attr source packetReceivedFromUpper
attr title "packets received from higher layer, vector(packetBytes)"
vector 276 AODV30_TnT.S5.wlan[0].mac.queue packetPushed:vector(packetBytes) ETV
attr interpolationmode none
attr title "packet pushed, vector(packetBytes)"
vector 277 AODV30_TnT.S5.wlan[0].mac.queue queueLength:vector ETV
attr interpolationmode sample-hold
attr source "count(packetPushed) - count(packetPopped) - count(packetRemoved) - count(packetDropped)"
attr title "queue length, vector"
vector 278 AODV30_TnT.S5.wlan[0].mac.queue packetPopped:vector(packetBytes) ETV
attr interpolationmode none
attr title "packet popped, vector(packetBytes)"
vector 279 AODV30_TnT.S5.wlan[0].mac.queue queueingTime:vector ETV
attr interpolationmode none
attr source queueingTime(packetPopped)
attr title "queueing times, vector"
attr unit s
vector 280 AODV30_TnT.S5.wlan[0].mac sentDownPk:vector(packetBytes) ETV
attr interpolationmode none
attr source packetSentToLower
attr title "packets sent to lower layer, vector(packetBytes)"
vector 281 AODV30_TnT.H7.wlan[0].mac rcvdPkFromLl:vector(packetBytes) ETV
attr interpolationmode none
attr source packetReceivedFromLower
attr title "packets received from lower layer, vector(packetBytes)"
vector 282 AODV30_TnT.H7.wlan[0].mac passedUpPk:vector(packetBytes) ETV
attr interpolationmode none
attr source packetSentToUpper
attr title "packets passed to higher layer, vector(packetBytes)"
vector 283 AODV30_TnT.H7.udp packetReceived:vector(packetBytes) ETV
attr interpolationmode none
attr source packetReceived
attr title "packets received, vector(packetBytes)"
vector 284 AODV30_TnT.H7.udp passedUpPk:vector(count) ETV
attr interpolationmode none
attr source packetSentToUpper
attr title "packets passed up, vector(count)"
vector 285 AODV30_TnT.H23.udp packetSent:vector(packetBytes) ETV
attr interpolationmode none
attr source packetSent
attr title "packets sent, vector(packetBytes)"
vector 286 AODV30_TnT.H23.wlan[0].mac rcvdPkFromHl:vector(packetBytes) ETV
attr interpolationmode none
attr source packetReceivedFromUpper
attr title "packets received from higher layer, vector(packetBytes)"
vector 287 AODV30_TnT.H23.wlan[0].mac.queue packetPushed:vector(packetBytes) ETV
attr interpolationmode none
attr title "packet pushed, vector(packetBytes)"
vector 288 AODV30_TnT.H23.wlan[0].mac.queue queueLength:vector ETV
attr interpolationmode sample-hold
attr source "count(packetPushed) - count(packetPopped) - count(packetRemoved) - count(packetDropped)"
attr title "queue length, vector"
vector 289 AODV30_TnT.H23.wlan[0].mac.queue packetPopped:vector(packetBytes) ETV
attr interpolationmode none
attr title "packet popped, vector(packetBytes)"
vector 290 AODV30_TnT.H23.wlan[0].mac.queue queueingTime:vector ETV
attr interpolationmode none
attr source queueingTime(packetPopped)
attr title "queueing times, vector"
attr unit s
vector 291 AODV30_TnT.H23.wlan[0].mac sentDownPk:vector(packetBytes) ETV
attr interpolationmode none
attr source packetSentToLower
attr title "packets sent to lower layer, vector(packetBytes)"
vector 292 AODV30_TnT.H10.udp packetSent:vector(packetBytes) ETV
attr interpolationmode none
attr source packetSent
attr title "packets sent, vector(packetBytes)"
vector 293 AODV30_TnT.H10.wlan[0].mac rcvdPkFromHl:vector(packetBytes) ETV
attr interpolationmode none
attr source packetReceivedFromUpper
attr title "packets received from higher layer, vector(packetBytes)"
vector 294 AODV30_TnT.H10.wlan[0].mac.queue packetPushed:vector(packetBytes) ETV
attr interpolationmode none
attr title "packet pushed, vector(packetBytes)"
vector 295 AODV30_TnT.H10.wlan[0].mac.queue queueLength:vector ETV
attr interpolationmode sample-hold
attr source "count(packetPushed) - count(packetPopped) - count(packetRemoved) - count(packetDropped)"
attr title "queue length, vector"
vector 296 AODV30_TnT.H10.wlan[0].mac.queue packetPopped:vector(packetBytes) ETV
attr interpolationmode none
attr title "packet popped, vector(packetBytes)"
vector 297 AODV30_TnT.H10.wlan[0].mac.queue queueingTime:vector ETV
attr interpolationmode none
attr source queueingTime(packetPopped)
attr title "queueing times, vector"
attr unit s
vector 298 AODV30_TnT.H10.wlan[0].mac sentDownPk:vector(packetBytes) ETV
attr interpolationmode none
attr source packetSentToLower
attr title "packets sent to lower layer, vector(packetBytes)"
vector 299 AODV30_TnT.H18.wlan[0].mac rcvdPkFromLl:vector(packetBytes) ETV
attr interpolationmode none
attr source packetReceivedFromLower
attr title "packets received from lower layer, vector(packetBytes)"
vector 300 AODV30_TnT.H18.wlan[0].mac passedUpPk:vector(packetBytes) ETV
attr interpolationmode none
attr source packetSentToUpper
attr title "packets passed to higher layer, vector(packetBytes)"
vector 301 AODV30_TnT.H18.udp packetReceived:vector(packetBytes) ETV
attr interpolationmode none
attr source packetReceived
attr title "packets received, vector(packetBytes)"
vector 302 AODV30_TnT.H18.udp passedUpPk:vector(count) ETV
attr interpolationmode none
attr source packetSentToUpper
attr title "packets passed up, vector(count)"
vector 303 AODV30_TnT.H2.wlan[0].mac rcvdPkFromLl:vector(packetBytes) ETV
attr interpolationmode none
attr source packetReceivedFromLower
attr title "packets received from lower layer, vector(packetBytes)"
vector 304 AODV30_TnT.H2.wlan[0].mac passedUpPk:vector(packetBytes) ETV
attr interpolationmode none
attr source packetSentToUpper
attr title "packets passed to higher layer, vector(packetBytes)"
vector 305 AODV30_TnT.H2.udp packetReceived:vector(packetBytes) ETV
attr interpolationmode none
attr source packetReceived
attr title "packets received, vector(packetBytes)"
vector 306 AODV30_TnT.H2.udp passedUpPk:vector(count) ETV
attr interpolationmode none
attr source packetSentToUpper
attr title "packets passed up, vector(count)"
vector 307 AODV30_TnT.H24.wlan[0].mac rcvdPkFromLl:vector(packetBytes) ETV
attr interpolationmode none
attr source packetReceivedFromLower
attr title "packets received from lower layer, vector(packetBytes)"
vector 308 AODV30_TnT.H24.wlan[0].mac passedUpPk:vector(packetBytes) ETV
attr interpolationmode none
attr source packetSentToUpper
attr title "packets passed to higher layer, vector(packetBytes)"
vector 309 AODV30_TnT.H24.udp packetReceived:vector(packetBytes) ETV
attr interpolationmode none
attr source packetReceived
attr title "packets received, vector(packetBytes)"
vector 310 AODV30_TnT.H24.udp passedUpPk:vector(count) ETV
attr interpolationmode none
attr source packetSentToUpper
attr title "packets passed up, vector(count)"
vector 311 AODV30_TnT.Bs1.udp packetSent:vector(packetBytes) ETV
attr interpolationmode none
attr source packetSent
attr title "packets sent, vector(packetBytes)"
vector 312 AODV30_TnT.Bs1.ipv4.arp arpRequestSent:vector(packetBytes) ETV
attr source arpRequestSent
attr title "ARP request sent, vector(packetBytes)"
vector 313 AODV30_TnT.Bs1.wlan[0].mac rcvdPkFromHl:vector(packetBytes) ETV
attr interpolationmode none
attr source packetReceivedFromUpper
attr title "packets received from higher layer, vector(packetBytes)"
vector 314 AODV30_TnT.Bs1.wlan[0].mac.queue packetPushed:vector(packetBytes) ETV
attr interpolationmode none
attr title "packet pushed, vector(packetBytes)"
vector 315 AODV30_TnT.Bs1.wlan[0].mac.queue queueLength:vector ETV
attr interpolationmode sample-hold
attr source "count(packetPushed) - count(packetPopped) - count(packetRemoved) - count(packetDropped)"
attr title "queue length, vector"
vector 316 AODV30_TnT.Bs1.wlan[0].mac.queue packetPopped:vector(packetBytes) ETV
attr interpolationmode none
attr title "packet popped, vector(packetBytes)"
vector 317 AODV30_TnT.Bs1.wlan[0].mac.queue queueingTime:vector ETV
attr interpolationmode none
attr source queueingTime(packetPopped)
attr title "queueing times, vector"
attr unit s
vector 318 AODV30_TnT.Bs1.wlan[0].mac sentDownPk:vector(packetBytes) ETV
attr interpolationmode none
attr source packetSentToLower
attr title "packets sent to lower layer, vector(packetBytes)"
vector 319 AODV30_TnT.H27.udp packetSent:vector(packetBytes) ETV
attr interpolationmode none
attr source packetSent
attr title "packets sent, vector(packetBytes)"
vector 320 AODV30_TnT.H27.wlan[0].mac rcvdPkFromHl:vector(packetBytes) ETV
attr interpolationmode none
attr source packetReceivedFromUpper
attr title "packets received from higher layer, vector(packetBytes)"
vector 321 AODV30_TnT.H27.wlan[0].mac.queue packetPushed:vector(packetBytes) ETV
attr interpolationmode none
attr title "packet pushed, vector(packetBytes)"
vector 322 AODV30_TnT.H27.wlan[0].mac.queue queueLength:vector ETV
attr interpolationmode sample-hold
attr source "count(packetPushed) - count(packetPopped) - count(packetRemoved) - count(packetDropped)"
attr title "queue length, vector"
vector 323 AODV30_TnT.H27.wlan[0].mac.queue packetPopped:vector(packetBytes) ETV
attr interpolationmode none
attr title "packet popped, vector(packetBytes)"
vector 324 AODV30_TnT.H27.wlan[0].mac.queue queueingTime:vector ETV
attr interpolationmode none
attr source queueingTime(packetPopped)
attr title "queueing times, vector"
attr unit s
vector 325 AODV30_TnT.H27.wlan[0].mac sentDownPk:vector(packetBytes) ETV
attr interpolationmode none
attr source packetSentToLower
attr title "packets sent to lower layer, vector(packetBytes)"
vector 326 AODV30_TnT.H19.udp packetSent:vector(packetBytes) ETV
attr interpolationmode none
attr source packetSent
attr title "packets sent, vector(packetBytes)"
vector 327 AODV30_TnT.H19.wlan[0].mac rcvdPkFromHl:vector(packetBytes) ETV
attr interpolationmode none
attr source packetReceivedFromUpper
attr title "packets received from higher layer, vector(packetBytes)"
vector 328 AODV30_TnT.H19.wlan[0].mac.queue packetPushed:vector(packetBytes) ETV
attr interpolationmode none
attr title "packet pushed, vector(packetBytes)"
vector 329 AODV30_TnT.H19.wlan[0].mac.queue queueLength:vector ETV
attr interpolationmode sample-hold
attr source "count(packetPushed) - count(packetPopped) - count(packetRemoved) - count(packetDropped)"
attr title "queue length, vector"
vector 330 AODV30_TnT.H19.wlan[0].mac.queue packetPopped:vector(packetBytes) ETV
attr interpolationmode none
attr title "packet popped, vector(packetBytes)"
vector 331 AODV30_TnT.H19.wlan[0].mac.queue queueingTime:vector ETV
attr interpolationmode none
attr source queueingTime(packetPopped)
attr title "queueing times, vector"
attr unit s
vector 332 AODV30_TnT.H19.wlan[0].mac sentDownPk:vector(packetBytes) ETV
attr interpolationmode none
attr source packetSentToLower
attr title "packets sent to lower layer, vector(packetBytes)"
vector 333 AODV30_TnT.H5.wlan[0].mac rcvdPkFromLl:vector(packetBytes) ETV
attr interpolationmode none
attr source packetReceivedFromLower
attr title "packets received from lower layer, vector(packetBytes)"
vector 334 AODV30_TnT.H5.wlan[0].mac passedUpPk:vector(packetBytes) ETV
attr interpolationmode none
attr source packetSentToUpper
attr title "packets passed to higher layer, vector(packetBytes)"
vector 335 AODV30_TnT.H22.wlan[0].mac rcvdPkFromLl:vector(packetBytes) ETV
attr interpolationmode none
attr source packetReceivedFromLower
attr title "packets received from lower layer, vector(packetBytes)"
vector 336 AODV30_TnT.H22.wlan[0].mac passedUpPk:vector(packetBytes) ETV
attr interpolationmode none
attr source packetSentToUpper
attr title "packets passed to higher layer, vector(packetBytes)"
vector 337 AODV30_TnT.S5.wlan[0].mac rcvdPkFromLl:vector(packetBytes) ETV
attr interpolationmode none
attr source packetReceivedFromLower
attr title "packets received from lower layer, vector(packetBytes)"
vector 338 AODV30_TnT.S5.wlan[0].mac passedUpPk:vector(packetBytes) ETV
attr interpolationmode none
attr source packetSentToUpper
attr title "packets passed to higher layer, vector(packetBytes)"
vector 339 AODV30_TnT.S5.ipv4.arp arpReplySent:vector(packetBytes) ETV
attr source arpReplySent
attr title "ARP replies sent, vector(packetBytes)"
vector 340 AODV30_TnT.H24.udp packetSent:vector(packetBytes) ETV
attr interpolationmode none
attr source packetSent
attr title "packets sent, vector(packetBytes)"
vector 341 AODV30_TnT.H24.wlan[0].mac rcvdPkFromHl:vector(packetBytes) ETV
attr interpolationmode none
attr source packetReceivedFromUpper
attr title "packets received from higher layer, vector(packetBytes)"
vector 342 AODV30_TnT.H24.wlan[0].mac.queue packetPushed:vector(packetBytes) ETV
attr interpolationmode none
attr title "packet pushed, vector(packetBytes)"
vector 343 AODV30_TnT.H24.wlan[0].mac.queue queueLength:vector ETV
attr interpolationmode sample-hold
attr source "count(packetPushed) - count(packetPopped) - count(packetRemoved) - count(packetDropped)"
attr title "queue length, vector"
vector 344 AODV30_TnT.H24.wlan[0].mac.queue packetPopped:vector(packetBytes) ETV
attr interpolationmode none
attr title "packet popped, vector(packetBytes)"
vector 345 AODV30_TnT.H24.wlan[0].mac.queue queueingTime:vector ETV
attr interpolationmode none
attr source queueingTime(packetPopped)
attr title "queueing times, vector"
attr unit s
vector 346 AODV30_TnT.H24.wlan[0].mac sentDownPk:vector(packetBytes) ETV
attr interpolationmode none
attr source packetSentToLower
attr title "packets sent to lower layer, vector(packetBytes)"
vector 347 AODV30_TnT.H26.wlan[0].mac rcvdPkFromLl:vector(packetBytes) ETV
attr interpolationmode none
attr source packetReceivedFromLower
attr title "packets received from lower layer, vector(packetBytes)"
vector 348 AODV30_TnT.H26.wlan[0].mac passedUpPk:vector(packetBytes) ETV
attr interpolationmode none
attr source packetSentToUpper
attr title "packets passed to higher layer, vector(packetBytes)"
vector 349 AODV30_TnT.H26.udp packetReceived:vector(packetBytes) ETV
attr interpolationmode none
attr source packetReceived
attr title "packets received, vector(packetBytes)"
vector 350 AODV30_TnT.H26.udp passedUpPk:vector(count) ETV
attr interpolationmode none
attr source packetSentToUpper
attr title "packets passed up, vector(count)"
vector 351 AODV30_TnT.H4.wlan[0].mac rcvdPkFromLl:vector(packetBytes) ETV
attr interpolationmode none
attr source packetReceivedFromLower
attr title "packets received from lower layer, vector(packetBytes)"
vector 352 AODV30_TnT.H4.wlan[0].mac passedUpPk:vector(packetBytes) ETV
attr interpolationmode none
attr source packetSentToUpper
attr title "packets passed to higher layer, vector(packetBytes)"
vector 353 AODV30_TnT.H4.udp packetReceived:vector(packetBytes) ETV
attr interpolationmode none
attr source packetReceived
attr title "packets received, vector(packetBytes)"
vector 354 AODV30_TnT.H4.udp passedUpPk:vector(count) ETV
attr interpolationmode none
attr source packetSentToUpper
attr title "packets passed up, vector(count)"
vector 355 AODV30_TnT.H18.wlan[0].mac packetDropNotAddressedToUs:vector(packetBytes) ETV
attr interpolationmode none
attr source packetDropReasonIsNotAddressedToUs(packetDropped)
attr title "packet drop: not addressed to us, vector(packetBytes)"
vector 356 AODV30_TnT.H1.wlan[0].mac packetDropNotAddressedToUs:vector(packetBytes) ETV
attr interpolationmode none
attr source packetDropReasonIsNotAddressedToUs(packetDropped)
attr title "packet drop: not addressed to us, vector(packetBytes)"
vector 357 AODV30_TnT.H2.wlan[0].mac packetDropNotAddressedToUs:vector(packetBytes) ETV
attr interpolationmode none
attr source packetDropReasonIsNotAddressedToUs(packetDropped)
attr title "packet drop: not addressed to us, vector(packetBytes)"
vector 358 AODV30_TnT.H24.wlan[0].mac packetDropNotAddressedToUs:vector(packetBytes) ETV
attr interpolationmode none
attr source packetDropReasonIsNotAddressedToUs(packetDropped)
attr title "packet drop: not addressed to us, vector(packetBytes)"
vector 359 AODV30_TnT.H3.wlan[0].mac packetDropNotAddressedToUs:vector(packetBytes) ETV
attr interpolationmode none
attr source packetDropReasonIsNotAddressedToUs(packetDropped)
attr title "packet drop: not addressed to us, vector(packetBytes)"
vector 360 AODV30_TnT.S5.udp packetReceived:vector(packetBytes) ETV
attr interpolationmode none
attr source packetReceived
attr title "packets received, vector(packetBytes)"
vector 361 AODV30_TnT.S5.udp passedUpPk:vector(count) ETV
attr interpolationmode none
attr source packetSentToUpper
attr title "packets passed up, vector(count)"
vector 362 AODV30_TnT.H5.udp packetReceived:vector(packetBytes) ETV
attr interpolationmode none
attr source packetReceived
attr title "packets received, vector(packetBytes)"
vector 363 AODV30_TnT.H5.udp passedUpPk:vector(count) ETV
attr interpolationmode none
attr source packetSentToUpper
attr title "packets passed up, vector(count)"
vector 364 AODV30_TnT.H29.udp packetSent:vector(packetBytes) ETV
attr interpolationmode none
attr source packetSent
attr title "packets sent, vector(packetBytes)"
vector 365 AODV30_TnT.H29.wlan[0].mac rcvdPkFromHl:vector(packetBytes) ETV
attr interpolationmode none
attr source packetReceivedFromUpper
attr title "packets received from higher layer, vector(packetBytes)"
vector 366 AODV30_TnT.H29.wlan[0].mac.queue packetPushed:vector(packetBytes) ETV
attr interpolationmode none
attr title "packet pushed, vector(packetBytes)"
vector 367 AODV30_TnT.H29.wlan[0].mac.queue queueLength:vector ETV
attr interpolationmode sample-hold
attr source "count(packetPushed) - count(packetPopped) - count(packetRemoved) - count(packetDropped)"
attr title "queue length, vector"
vector 368 AODV30_TnT.H29.wlan[0].mac.queue packetPopped:vector(packetBytes) ETV
attr interpolationmode none
attr title "packet popped, vector(packetBytes)"
vector 369 AODV30_TnT.H29.wlan[0].mac.queue queueingTime:vector ETV
attr interpolationmode none
attr source queueingTime(packetPopped)
attr title "queueing times, vector"
attr unit s
vector 370 AODV30_TnT.H29.wlan[0].mac sentDownPk:vector(packetBytes) ETV
attr interpolationmode none
attr source packetSentToLower
attr title "packets sent to lower layer, vector(packetBytes)"
vector 371 AODV30_TnT.H16.wlan[0].mac packetDropNotAddressedToUs:vector(packetBytes) ETV
attr interpolationmode none
attr source packetDropReasonIsNotAddressedToUs(packetDropped)
attr title "packet drop: not addressed to us, vector(packetBytes)"
vector 372 AODV30_TnT.H22.wlan[0].mac packetDropNotAddressedToUs:vector(packetBytes) ETV
attr interpolationmode none
attr source packetDropReasonIsNotAddressedToUs(packetDropped)
attr title "packet drop: not addressed to us, vector(packetBytes)"
vector 373 AODV30_TnT.H6.udp packetSent:vector(packetBytes) ETV
attr interpolationmode none
attr source packetSent
attr title "packets sent, vector(packetBytes)"
vector 374 AODV30_TnT.H6.wlan[0].mac rcvdPkFromHl:vector(packetBytes) ETV
attr interpolationmode none
attr source packetReceivedFromUpper
attr title "packets received from higher layer, vector(packetBytes)"
vector 375 AODV30_TnT.H6.wlan[0].mac.queue packetPushed:vector(packetBytes) ETV
attr interpolationmode none
attr title "packet pushed, vector(packetBytes)"
vector 376 AODV30_TnT.H6.wlan[0].mac.queue queueLength:vector ETV
attr interpolationmode sample-hold
attr source "count(packetPushed) - count(packetPopped) - count(packetRemoved) - count(packetDropped)"
attr title "queue length, vector"
vector 377 AODV30_TnT.H6.wlan[0].mac.queue packetPopped:vector(packetBytes) ETV
attr interpolationmode none
attr title "packet popped, vector(packetBytes)"
vector 378 AODV30_TnT.H6.wlan[0].mac.queue queueingTime:vector ETV
attr interpolationmode none
attr source queueingTime(packetPopped)
attr title "queueing times, vector"
attr unit s
vector 379 AODV30_TnT.H6.wlan[0].mac sentDownPk:vector(packetBytes) ETV
attr interpolationmode none
attr source packetSentToLower
attr title "packets sent to lower layer, vector(packetBytes)"
vector 380 AODV30_TnT.H3.udp packetSent:vector(packetBytes) ETV
attr interpolationmode none
attr source packetSent
attr title "packets sent, vector(packetBytes)"
vector 381 AODV30_TnT.H3.wlan[0].mac rcvdPkFromHl:vector(packetBytes) ETV
attr interpolationmode none
attr source packetReceivedFromUpper
attr title "packets received from higher layer, vector(packetBytes)"
vector 382 AODV30_TnT.H3.wlan[0].mac.queue packetPushed:vector(packetBytes) ETV
attr interpolationmode none
attr title "packet pushed, vector(packetBytes)"
vector 383 AODV30_TnT.H3.wlan[0].mac.queue queueLength:vector ETV
attr interpolationmode sample-hold
attr source "count(packetPushed) - count(packetPopped) - count(packetRemoved) - count(packetDropped)"
attr title "queue length, vector"
vector 384 AODV30_TnT.H3.wlan[0].mac.queue packetPopped:vector(packetBytes) ETV
attr interpolationmode none
attr title "packet popped, vector(packetBytes)"
vector 385 AODV30_TnT.H3.wlan[0].mac.queue queueingTime:vector ETV
attr interpolationmode none
attr source queueingTime(packetPopped)
attr title "queueing times, vector"
attr unit s
vector 386 AODV30_TnT.H3.wlan[0].mac sentDownPk:vector(packetBytes) ETV
attr interpolationmode none
attr source packetSentToLower
attr title "packets sent to lower layer, vector(packetBytes)"
vector 387 AODV30_TnT.S1.wlan[0].mac rcvdPkFromLl:vector(packetBytes) ETV
attr interpolationmode none
attr source packetReceivedFromLower
attr title "packets received from lower layer, vector(packetBytes)"
vector 388 AODV30_TnT.S1.wlan[0].mac passedUpPk:vector(packetBytes) ETV
attr interpolationmode none
attr source packetSentToUpper
attr title "packets passed to higher layer, vector(packetBytes)"
vector 389 AODV30_TnT.S1.udp packetReceived:vector(packetBytes) ETV
attr interpolationmode none
attr source packetReceived
attr title "packets received, vector(packetBytes)"
vector 390 AODV30_TnT.S1.udp passedUpPk:vector(count) ETV
attr interpolationmode none
attr source packetSentToUpper
attr title "packets passed up, vector(count)"
vector 391 AODV30_TnT.H22.udp packetReceived:vector(packetBytes) ETV
attr interpolationmode none
attr source packetReceived
attr title "packets received, vector(packetBytes)"
vector 392 AODV30_TnT.H22.udp passedUpPk:vector(count) ETV
attr interpolationmode none
attr source packetSentToUpper
attr title "packets passed up, vector(count)"
vector 393 AODV30_TnT.H8.udp packetSent:vector(packetBytes) ETV
attr interpolationmode none
attr source packetSent
attr title "packets sent, vector(packetBytes)"
vector 394 AODV30_TnT.H8.wlan[0].mac rcvdPkFromHl:vector(packetBytes) ETV
attr interpolationmode none
attr source packetReceivedFromUpper
attr title "packets received from higher layer, vector(packetBytes)"
vector 395 AODV30_TnT.H8.wlan[0].mac.queue packetPushed:vector(packetBytes) ETV
attr interpolationmode none
attr title "packet pushed, vector(packetBytes)"
vector 396 AODV30_TnT.H8.wlan[0].mac.queue queueLength:vector ETV
attr interpolationmode sample-hold
attr source "count(packetPushed) - count(packetPopped) - count(packetRemoved) - count(packetDropped)"
attr title "queue length, vector"
vector 397 AODV30_TnT.H8.wlan[0].mac.queue packetPopped:vector(packetBytes) ETV
attr interpolationmode none
attr title "packet popped, vector(packetBytes)"
vector 398 AODV30_TnT.H8.wlan[0].mac.queue queueingTime:vector ETV
attr interpolationmode none
attr source queueingTime(packetPopped)
attr title "queueing times, vector"
attr unit s
vector 399 AODV30_TnT.H8.wlan[0].mac sentDownPk:vector(packetBytes) ETV
attr interpolationmode none
attr source packetSentToLower
attr title "packets sent to lower layer, vector(packetBytes)"
vector 400 AODV30_TnT.H18.udp packetSent:vector(packetBytes) ETV
attr interpolationmode none
attr source packetSent
attr title "packets sent, vector(packetBytes)"
vector 401 AODV30_TnT.H18.wlan[0].mac rcvdPkFromHl:vector(packetBytes) ETV
attr interpolationmode none
attr source packetReceivedFromUpper
attr title "packets received from higher layer, vector(packetBytes)"
vector 402 AODV30_TnT.H18.wlan[0].mac.queue packetPushed:vector(packetBytes) ETV
attr interpolationmode none
attr title "packet pushed, vector(packetBytes)"
vector 403 AODV30_TnT.H18.wlan[0].mac.queue queueLength:vector ETV
attr interpolationmode sample-hold
attr source "count(packetPushed) - count(packetPopped) - count(packetRemoved) - count(packetDropped)"
attr title "queue length, vector"
vector 404 AODV30_TnT.H18.wlan[0].mac.queue packetPopped:vector(packetBytes) ETV
attr interpolationmode none
attr title "packet popped, vector(packetBytes)"
vector 405 AODV30_TnT.H18.wlan[0].mac.queue queueingTime:vector ETV
attr interpolationmode none
attr source queueingTime(packetPopped)
attr title "queueing times, vector"
attr unit s
vector 406 AODV30_TnT.H18.wlan[0].mac sentDownPk:vector(packetBytes) ETV
attr interpolationmode none
attr source packetSentToLower
attr title "packets sent to lower layer, vector(packetBytes)"
vector 407 AODV30_TnT.H12.ipv4.arp arpRequestSent:vector(packetBytes) ETV
attr source arpRequestSent
attr title "ARP request sent, vector(packetBytes)"
vector 408 AODV30_TnT.H30.udp packetSent:vector(packetBytes) ETV
attr interpolationmode none
attr source packetSent
attr title "packets sent, vector(packetBytes)"
vector 409 AODV30_TnT.H30.wlan[0].mac rcvdPkFromHl:vector(packetBytes) ETV
attr interpolationmode none
attr source packetReceivedFromUpper
attr title "packets received from higher layer, vector(packetBytes)"
vector 410 AODV30_TnT.H30.wlan[0].mac.queue packetPushed:vector(packetBytes) ETV
attr interpolationmode none
attr title "packet pushed, vector(packetBytes)"
vector 411 AODV30_TnT.H30.wlan[0].mac.queue queueLength:vector ETV
attr interpolationmode sample-hold
attr source "count(packetPushed) - count(packetPopped) - count(packetRemoved) - count(packetDropped)"
attr title "queue length, vector"
vector 412 AODV30_TnT.H30.wlan[0].mac.queue packetPopped:vector(packetBytes) ETV
attr interpolationmode none
attr title "packet popped, vector(packetBytes)"
vector 413 AODV30_TnT.H30.wlan[0].mac.queue queueingTime:vector ETV
attr interpolationmode none
attr source queueingTime(packetPopped)
attr title "queueing times, vector"
attr unit s
vector 414 AODV30_TnT.H30.wlan[0].mac sentDownPk:vector(packetBytes) ETV
attr interpolationmode none
attr source packetSentToLower
attr title "packets sent to lower layer, vector(packetBytes)"
vector 415 AODV30_TnT.S3.ipv4.arp arpReplySent:vector(packetBytes) ETV
attr source arpReplySent
attr title "ARP replies sent, vector(packetBytes)"
vector 416 AODV30_TnT.H1.udp packetSent:vector(packetBytes) ETV
attr interpolationmode none
attr source packetSent
attr title "packets sent, vector(packetBytes)"
vector 417 AODV30_TnT.H1.wlan[0].mac rcvdPkFromHl:vector(packetBytes) ETV
attr interpolationmode none
attr source packetReceivedFromUpper
attr title "packets received from higher layer, vector(packetBytes)"
vector 418 AODV30_TnT.H1.wlan[0].mac.queue packetPushed:vector(packetBytes) ETV
attr interpolationmode none
attr title "packet pushed, vector(packetBytes)"
vector 419 AODV30_TnT.H1.wlan[0].mac.queue queueLength:vector ETV
attr interpolationmode sample-hold
attr source "count(packetPushed) - count(packetPopped) - count(packetRemoved) - count(packetDropped)"
attr title "queue length, vector"
vector 420 AODV30_TnT.H1.wlan[0].mac.queue packetPopped:vector(packetBytes) ETV
attr interpolationmode none
attr title "packet popped, vector(packetBytes)"
vector 421 AODV30_TnT.H1.wlan[0].mac.queue queueingTime:vector ETV
attr interpolationmode none
attr source queueingTime(packetPopped)
attr title "queueing times, vector"
attr unit s
vector 422 AODV30_TnT.H1.wlan[0].mac sentDownPk:vector(packetBytes) ETV
attr interpolationmode none
attr source packetSentToLower
attr title "packets sent to lower layer, vector(packetBytes)"
vector 423 AODV30_TnT.H10.wlan[0].mac packetDropNotAddressedToUs:vector(packetBytes) ETV
[...]
531	24306	0.810787581462	0
531	30168	1.427975486023	1
531	30168	1.427975486023	0
531	30307	1.428480572025	1
531	30307	1.428480572025	0
531	34228	1.562143431022	1
531	34228	1.562143431022	0
532	10405	0.328785041342	52
532	11830	0.33128800353	52
532	15910	0.426710126391	28
532	16363	0.427310126391	48
532	16918	0.427975486023	28
532	24306	0.810787581462	52
532	30168	1.427975486023	28
532	30307	1.428480572025	48
532	34228	1.562143431022	52
533	10405	0.328785041342	0
533	11830	0.33128800353	0
533	15910	0.426710126391	0
533	16363	0.427310126391	0
533	16918	0.427975486023	0
533	24306	0.810787581462	0
533	30168	1.427975486023	0
533	30307	1.428480572025	0
533	34228	1.562143431022	0
534	10405	0.328785041342	75
534	11830	0.33128800353	75
534	15910	0.426710126391	51
534	16363	0.427310126391	71
534	16918	0.427975486023	51
534	24306	0.810787581462	75
534	30168	1.427975486023	51
534	30307	1.428480572025	71
534	34228	1.562143431022	75
535	10513	0.328990723369	32
535	10811	0.329426582655	32
535	10852	0.329498697916	32
535	13787	0.341013392254	28
535	15926	0.426710248014	28
535	23289	0.808282024814	32
535	25690	0.908948190613	28
535	27565	1.078558530015	32
535	34499	1.562559518226	32
535	44042	2.355122729876	28
536	10515	0.328990723369	52
536	10813	0.329426582655	52
536	10854	0.329498697916	52
536	13556	0.337162781176	28
536	13789	0.341013392254	28
536	13947	0.341519049128	48
536	14638	0.350199271855	540
536	14812	0.352500100292	540
536	15928	0.426710248014	28
536	19118	0.50460115698	540
536	20450	0.754601156972	540
536	22164	0.806068458137	48
536	23291	0.808282024814	52
536	25692	0.908948190613	48
536	26387	1.004601156965	540
536	27567	1.078558530015	52
536	29236	1.254601156957	540
536	34501	1.562559518226	52
536	44044	2.355122729876	48
537	10515	0.328990723369	52
537	10813	0.329426582655	52
537	10854	0.329498697916	52
537	13556	0.337162781176	28
537	13789	0.341013392254	28
537	13947	0.341519049128	48
537	14638	0.350199271855	540
537	14812	0.352500100292	540
537	15928	0.426710248014	28
537	19118	0.50460115698	540
537	20450	0.754601156972	540
537	22164	0.806068458137	48
537	23291	0.808282024814	52
537	25692	0.908948190613	48
537	26387	1.004601156965	540
537	27567	1.078558530015	52
537	29236	1.254601156957	540
537	34501	1.562559518226	52
537	44044	2.355122729876	48
538	10515	0.328990723369	1
538	10515	0.328990723369	0
538	10813	0.329426582655	1
538	10813	0.329426582655	0
538	10854	0.329498697916	1
538	11041	0.329774582655	0
538	13556	0.337162781176	1
538	13556	0.337162781176	0
538	13789	0.341013392254	1
538	13789	0.341013392254	0
538	13947	0.341519049128	1
538	13947	0.341519049128	0
538	14638	0.350199271855	1
538	14638	0.350199271855	0
538	14812	0.352500100292	1
538	14812	0.352500100292	0
538	15928	0.426710248014	1
538	15928	0.426710248014	0
538	19118	0.50460115698	1
538	19118	0.50460115698	0
538	20450	0.754601156972	1
538	20450	0.754601156972	0
538	22164	0.806068458137	1
538	22164	0.806068458137	0
538	23291	0.808282024814	1
538	25474	0.906068458137	0
538	25692	0.908948190613	1
538	25692	0.908948190613	0
538	26387	1.004601156965	1
538	26387	1.004601156965	0
538	27567	1.078558530015	1
538	27567	1.078558530015	0
538	29236	1.254601156957	1
538	29236	1.254601156957	0
538	34501	1.562559518226	1
538	34501	1.562559518226	0
538	44044	2.355122729876	1
538	44044	2.355122729876	0
539	10515	0.328990723369	52
539	10813	0.329426582655	52
539	11041	0.329774582655	52
539	13556	0.337162781176	28
539	13789	0.341013392254	28
539	13947	0.341519049128	48
539	14638	0.350199271855	540
539	14812	0.352500100292	540
539	15928	0.426710248014	28
539	19118	0.50460115698	540
539	20450	0.754601156972	540
539	22164	0.806068458137	48
539	25474	0.906068458137	52
539	25692	0.908948190613	48
539	26387	1.004601156965	540
539	27567	1.078558530015	52
539	29236	1.254601156957	540
539	34501	1.562559518226	52
539	44044	2.355122729876	48
540	10515	0.328990723369	0
540	10813	0.329426582655	0
540	11041	0.329774582655	0.000275884739
540	13556	0.337162781176	0
540	13789	0.341013392254	0
540	13947	0.341519049128	0
540	14638	0.350199271855	0
540	14812	0.352500100292	0
540	15928	0.426710248014	0
540	19118	0.50460115698	0
540	20450	0.754601156972	0
540	22164	0.806068458137	0
540	25474	0.906068458137	0.097786433323
540	25692	0.908948190613	0
540	26387	1.004601156965	0
540	27567	1.078558530015	0
540	29236	1.254601156957	0
540	34501	1.562559518226	0
540	44044	2.355122729876	0
541	10515	0.328990723369	75
541	10813	0.329426582655	75
541	11041	0.329774582655	75
541	13556	0.337162781176	51
541	13789	0.341013392254	51
541	13947	0.341519049128	71
541	14638	0.350199271855	563
541	14812	0.352500100292	563
541	15928	0.426710248014	51
541	19118	0.50460115698	563
541	20450	0.754601156972	563
541	22164	0.806068458137	71
541	25474	0.906068458137	75
541	25692	0.908948190613	71
541	26387	1.004601156965	563
541	27567	1.078558530015	75
541	29236	1.254601156957	563
541	34501	1.562559518226	75
541	44044	2.355122729876	71
542	10709	0.329239941966	32
542	25193	0.813977762048	32
542	36208	1.567272320297	32
543	10711	0.329239941966	52
543	25195	0.813977762048	52
543	36210	1.567272320297	52
544	10711	0.329239941966	52
544	25195	0.813977762048	52
544	36210	1.567272320297	52
545	10711	0.329239941966	1
545	10711	0.329239941966	0
545	25195	0.813977762048	1
545	25195	0.813977762048	0
545	36210	1.567272320297	1
545	36210	1.567272320297	0
546	10711	0.329239941966	52
546	25195	0.813977762048	52
546	36210	1.567272320297	52
547	10711	0.329239941966	0
547	25195	0.813977762048	0
547	36210	1.567272320297	0
548	10711	0.329239941966	75
548	25195	0.813977762048	75
548	36210	1.567272320297	75
549	11607	0.330702201447	32
549	36312	1.567769273919	32
550	11609	0.330702201447	52
550	36314	1.567769273919	52
551	11609	0.330702201447	52
551	36314	1.567769273919	52
552	11609	0.330702201447	1
552	11609	0.330702201447	0
552	36314	1.567769273919	1
552	36314	1.567769273919	0
553	11609	0.330702201447	52
553	36314	1.567769273919	52
554	11609	0.330702201447	0
554	36314	1.567769273919	0
555	11609	0.330702201447	75
555	36314	1.567769273919	75
556	11869	0.331416209298	32
556	13188	0.335778435339	28
556	24842	0.812010372256	32
556	35613	1.565455584055	32
556	41633	2.107416147616	28
557	11871	0.331416209298	52
557	12344	0.332017675126	28
557	13190	0.335778435339	28
557	13366	0.336283215627	48
557	24844	0.812010372256	52
557	32318	1.506901830837	540
557	35615	1.565455584055	52
557	37742	1.756901830827	540
557	41044	2.006901830816	540
557	41635	2.107416147616	48
558	11871	0.331416209298	52
558	12344	0.332017675126	28
558	13190	0.335778435339	28
558	13366	0.336283215627	48
558	24844	0.812010372256	52
558	32318	1.506901830837	540
558	35615	1.565455584055	52
558	37742	1.756901830827	540
558	41044	2.006901830816	540
558	41635	2.107416147616	48
559	11871	0.331416209298	1
559	11871	0.331416209298	0
559	12344	0.332017675126	1
559	12344	0.332017675126	0
559	13190	0.335778435339	1
559	13190	0.335778435339	0
559	13366	0.336283215627	1
559	13366	0.336283215627	0
559	24844	0.812010372256	1
559	24844	0.812010372256	0
559	32318	1.506901830837	1
559	32318	1.506901830837	0
559	35615	1.565455584055	1
559	35615	1.565455584055	0
559	37742	1.756901830827	1
559	37742	1.756901830827	0
559	41044	2.006901830816	1
559	41044	2.006901830816	0
559	41635	2.107416147616	1
559	41635	2.107416147616	0
560	11871	0.331416209298	52
560	12344	0.332017675126	28
560	13190	0.335778435339	28
560	13366	0.336283215627	48
560	24844	0.812010372256	52
560	32318	1.506901830837	540
560	35615	1.565455584055	52
560	37742	1.756901830827	540
560	41044	2.006901830816	540
560	41635	2.107416147616	48
561	11871	0.331416209298	0
561	12344	0.332017675126	0
561	13190	0.335778435339	0
561	13366	0.336283215627	0
561	24844	0.812010372256	0
561	32318	1.506901830837	0
561	35615	1.565455584055	0
561	37742	1.756901830827	0
561	41044	2.006901830816	0
561	41635	2.107416147616	0
562	11871	0.331416209298	75
562	12344	0.332017675126	51
562	13190	0.335778435339	51
562	13366	0.336283215627	71
562	24844	0.812010372256	75
562	32318	1.506901830837	563
562	35615	1.565455584055	75
562	37742	1.756901830827	563
562	41044	2.006901830816	563
562	41635	2.107416147616	71
563	12343	0.332017675126	28
564	12412	0.33227006527	51
564	13113	0.335771311425	51
564	13651	0.337415396713	51
564	13730	0.337747846025	71
564	14113	0.341851664665	71
564	14796	0.352499887392	563
564	14950	0.354800336704	563
564	15143	0.357101165141	563
564	19225	0.506901772522	563
564	19307	0.509202221835	563
564	20909	0.756901772521	563
564	21089	0.759202221838	563
564	22441	0.806401073688	71
564	26533	1.006901772521	563
564	26746	1.009202221841	563
564	29343	1.256901772521	563
564	29425	1.259202221842	563
564	30099	1.344711011487	71
564	32400	1.509202220961	563
564	37997	1.759202220947	563
564	41351	2.009202220932	563
564	46324	2.508302219033	51
564	46503	2.512998431566	71
564	46676	2.517599668676	563
565	12416	0.332270177169	51
565	13376	0.336283485136	51
565	13457	0.33661571767	71
565	29819	1.34243040755	71
565	32329	1.506902100375	563
565	32404	1.509202332922	563
565	37753	1.756902100371	563
565	38001	1.75920233292	563
565	41055	2.006902100366	563
565	41355	2.009202332918	563
566	12426	0.332270473096	51
566	13121	0.335771484581	51
566	13371	0.336283237241	51
566	13465	0.336616013597	71
566	13638	0.337415186658	51
566	13741	0.337748019181	71
566	14103	0.34185145461	71
566	14776	0.352499677338	563
566	14959	0.354800505775	563
566	15155	0.357101338298	563
566	16609	0.427642597376	71
566	19212	0.506901562476	563
566	19315	0.509202394999	563
566	20896	0.756901562488	563
566	21097	0.759202395013	563
566	22427	0.806400863658	71
566	26520	1.006901562502	563
566	26753	1.009202395028	563
566	29330	1.256901562515	563
566	29433	1.259202395041	563
566	29813	1.342430159627	71
566	30426	1.42881304309	71
566	32323	1.506901852447	563
566	32415	1.509202628754	563
566	37747	1.756901852436	563
566	38012	1.759202628732	563
566	41049	2.006901852424	563
566	41362	2.00920262871	563
567	12573	0.332602868125	71
567	13724	0.337747774698	71
567	13939	0.34151893268	51
567	14308	0.345266101953	51
567	14403	0.345598498311	71
567	14493	0.347898759049	563
567	14623	0.350199087597	563
567	14800	0.352499983844	563
567	18875	0.502300644174	563
567	19101	0.504601040524	563
567	20148	0.752300644166	563
567	20433	0.754601040503	563
567	20778	0.755872651491	51
567	20850	0.756204952583	71
567	26175	1.002300644158	563
567	26370	1.004601040482	563
567	27117	1.075025552453	71
567	29024	1.252300644149	563
567	29219	1.254601040461	563
567	29723	1.34209717142	51
567	30006	1.344378214915	51
567	30078	1.344710435018	71
567	31977	1.502300644141	563
567	32186	1.504600864246	563
567	33198	1.557689921524	71
567	37042	1.752300644133	563
567	37216	1.754600864244	563
567	38268	1.761592602326	51
567	38441	1.761925051131	71
567	38732	1.764225479862	563
567	38861	1.766525918629	563
567	39016	1.768826357397	563
567	39176	1.771126796165	563
567	39337	1.773427234933	563
567	39461	1.775728378231	563
567	40559	2.002300644125	563
567	40834	2.004600864241	563
567	42689	2.254601210147	563
567	45456	2.502300761275	563
567	45854	2.504601210143	563
567	46303	2.508301642582	51
567	46391	2.508634478303	71
567	46480	2.512997855115	71
567	46582	2.5152988721	563
567	46655	2.517599092225	563
567	46846	2.561595789542	51
567	50321	2.752300644101	563
568	12842	0.334917863734	32
568	13497	0.336910246442	28
568	23623	0.809045443972	32
568	28140	1.080384042878	32
568	35005	1.563954230919	32
568	43906	2.35479019506	28
569	12844	0.334917863734	52
569	13013	0.33551878131	28
569	13499	0.336910246442	28
569	13648	0.33741531591	48
569	14789	0.352499806589	540
569	14974	0.354800635026	540
569	19222	0.50690169172	540
569	20906	0.756901691723	540
569	23625	0.809045443972	52
569	26530	1.006901691726	540
569	28142	1.080384042878	52
569	29340	1.256901691728	540
569	35007	1.563954230919	52
569	43908	2.35479019506	48
570	12844	0.334917863734	52
570	13013	0.33551878131	28
570	13499	0.336910246442	28
570	13648	0.33741531591	48
570	14789	0.352499806589	540
570	14974	0.354800635026	540
570	19222	0.50690169172	540
570	20906	0.756901691723	540
570	23625	0.809045443972	52
570	26530	1.006901691726	540
570	28142	1.080384042878	52
570	29340	1.256901691728	540
570	35007	1.563954230919	52
570	43908	2.35479019506	48
571	12844	0.334917863734	1
571	12844	0.334917863734	0
571	13013	0.33551878131	1
571	13013	0.33551878131	0
571	13499	0.336910246442	1
571	13499	0.336910246442	0
571	13648	0.33741531591	1
571	13648	0.33741531591	0
571	14789	0.352499806589	1
571	14789	0.352499806589	0
571	14974	0.354800635026	1
571	14974	0.354800635026	0
571	19222	0.50690169172	1
571	19222	0.50690169172	0
571	20906	0.756901691723	1
571	20906	0.756901691723	0
571	23625	0.809045443972	1
571	23625	0.809045443972	0
571	26530	1.006901691726	1
571	26530	1.006901691726	0
571	28142	1.080384042878	1
571	28142	1.080384042878	0
571	29340	1.256901691728	1
571	29340	1.256901691728	0
571	35007	1.563954230919	1
571	35007	1.563954230919	0
571	43908	2.35479019506	1
571	43908	2.35479019506	0
572	12844	0.334917863734	52
572	13013	0.33551878131	28
572	13499	0.336910246442	28
572	13648	0.33741531591	48
572	14789	0.352499806589	540
572	14974	0.354800635026	540
572	19222	0.50690169172	540
572	20906	0.756901691723	540
572	23625	0.809045443972	52
572	26530	1.006901691726	540
572	28142	1.080384042878	52
572	29340	1.256901691728	540
572	35007	1.563954230919	52
572	43908	2.35479019506	48
573	12844	0.334917863734	0
573	13013	0.33551878131	0
573	13499	0.336910246442	0
573	13648	0.33741531591	0
573	14789	0.352499806589	0
573	14974	0.354800635026	0
573	19222	0.50690169172	0
573	20906	0.756901691723	0
573	23625	0.809045443972	0
573	26530	1.006901691726	0
573	28142	1.080384042878	0
573	29340	1.256901691728	0
573	35007	1.563954230919	0
573	43908	2.35479019506	0
574	12844	0.334917863734	75
574	13013	0.33551878131	51
574	13499	0.336910246442	51
574	13648	0.33741531591	71
574	14789	0.352499806589	563
574	14974	0.354800635026	563
574	19222	0.50690169172	563
574	20906	0.756901691723	563
574	23625	0.809045443972	75
574	26530	1.006901691726	563
574	28142	1.080384042878	75
574	29340	1.256901691728	563
574	35007	1.563954230919	75
574	43908	2.35479019506	71
575	13012	0.33551878131	28
576	13189	0.335778435339	28
577	13231	0.336030825483	28
578	13498	0.336910246442	28
579	13555	0.337162781176	28
580	13788	0.341013392254	28
580	15927	0.426710248014	28
581	13858	0.341266220691	28
582	14012	0.341592103599	28
582	29591	1.341592103599	28
583	14157	0.344761129226	28
584	15494	0.425377697322	28
585	15909	0.426710126391	28
585	16917	0.427975486023	28
585	30167	1.427975486023	28
586	16118	0.426962806207	28
586	16998	0.428106044834	28
586	44716	2.438515381421	28
587	16532	0.427627528327	28
588	16714	0.427853799189	28
588	16991	0.42803439295	28
589	16787	0.42787996019	51
589	18145	0.432823178791	51
589	18312	0.435456641809	563
589	18565	0.437757373318	563
589	18860	0.502300601634	563
589	20135	0.752300601634	563
589	26162	1.002300601634	563
589	29011	1.252300601634	563
589	30698	1.429269738329	51
589	30857	1.429602138858	71
589	31959	1.502300601634	563
589	37573	1.756290665433	51
589	37661	1.756623279215	71
589	37824	1.758923956883	563
589	38345	1.761729751827	563
589	40538	2.002300601634	563
589	47195	2.573539244654	51
589	47711	2.576172775088	563
589	48246	2.578473540305	563
590	17313	0.428358560805	28
591	17545	0.428764630263	28
591	30383	1.428764630263	28
592	17798	0.429432019231	28
592	30431	1.428813115026	28
593	18017	0.432317845648	28
593	18318	0.435456771684	28
593	21469	0.804739401525	28
593	31419	1.435456771684	28
593	44369	2.435456771684	28
594	18071	0.432570577157	28
594	37499	1.756038063799	28
594	47120	2.57328664302	28
595	18440	0.435709409067	28
595	44420	2.435709409073	28
596	20690	0.755619880101	28
597	21243	0.761087402209	28
597	38128	1.761087402209	28
598	25095	0.813029381249	32
598	28001	1.079981151199	32
598	35764	1.565733980559	32
599	25097	0.813029381249	52
599	28003	1.079981151199	52
599	35766	1.565733980559	52
600	25097	0.813029381249	52
600	28003	1.079981151199	52
600	35766	1.565733980559	52
601	25097	0.813029381249	1
601	25097	0.813029381249	0
601	28003	1.079981151199	1
601	28003	1.079981151199	0
601	35766	1.565733980559	1
601	35766	1.565733980559	0
602	25097	0.813029381249	52
602	28003	1.079981151199	52
602	35766	1.565733980559	52
603	25097	0.813029381249	0
603	28003	1.079981151199	0
603	35766	1.565733980559	0
604	25097	0.813029381249	75
604	28003	1.079981151199	75
604	35766	1.565733980559	75
605	29654	1.341844925744	28
605	46225	2.508049396903	28
606	29857	1.343872952196	28
607	30514	1.429017168639	28
608	30918	1.429651598666	28
608	47025	2.573033877803	28
609	33003	1.557104782743	28
610	33676	1.561090417967	28
610	46711	2.561090417967	28
611	37397	1.755785418074	28
611	37827	1.758924000974	28
612	39817	1.809954881959	28
612	47859	2.576468651178	28
613	43034	2.256974272498	28
614	43371	2.259163977389	28
614	47421	2.575622038533	28
615	44592	2.438262683851	28
vector 616 AODV30_TnT.S5.app[0] throughput:vector ETV
attr source throughput(packetReceived)
attr title "throughput, vector"
attr unit bps
vector 617 AODV30_TnT.S1.app[0] throughput:vector ETV
attr source throughput(packetReceived)
attr title "throughput, vector"
attr unit bps
vector 618 AODV30_TnT.S2.app[0] throughput:vector ETV
attr source throughput(packetReceived)
attr title "throughput, vector"
attr unit bps
vector 619 AODV30_TnT.S3.app[0] throughput:vector ETV
attr source throughput(packetReceived)
attr title "throughput, vector"
attr unit bps
vector 620 AODV30_TnT.S4.app[0] throughput:vector ETV
attr source throughput(packetReceived)
attr title "throughput, vector"
attr unit bps
463	50471	2.6	40960
463	50471	2.7	0
463	50471	2.752302211657	0
499	50471	2.6	81920
499	50471	2.7	0
499	50471	2.752302211657	0
616	50471	0.1	0
616	50471	0.2	0
616	50471	0.3	0
616	50471	0.4	0
616	50471	0.5	0
616	50471	0.6	0
616	50471	0.7	0
616	50471	0.8	0
616	50471	0.9	0
616	50471	1	0
616	50471	1.1	0
616	50471	1.2	0
616	50471	1.3	0
616	50471	1.4	0
616	50471	1.5	0
616	50471	1.6	0
616	50471	1.7	0
616	50471	1.8	0
616	50471	1.9	0
616	50471	2	0
616	50471	2.1	0
616	50471	2.2	0
616	50471	2.3	0
616	50471	2.4	0
616	50471	2.5	0
616	50471	2.6	0
616	50471	2.7	0
616	50471	2.752302211657	0
617	50471	0.1	0
617	50471	0.2	0
617	50471	0.3	0
617	50471	0.4	0
617	50471	0.5	0
617	50471	0.6	0
617	50471	0.7	0
617	50471	0.8	0
617	50471	0.9	0
617	50471	1	0
617	50471	1.1	0
617	50471	1.2	0
617	50471	1.3	0
617	50471	1.4	0
617	50471	1.5	0
617	50471	1.6	0
617	50471	1.7	0
617	50471	1.8	0
617	50471	1.9	0
617	50471	2	0
617	50471	2.1	0
617	50471	2.2	0
617	50471	2.3	0
617	50471	2.4	0
617	50471	2.5	0
617	50471	2.6	0
617	50471	2.7	0
617	50471	2.752302211657	0
618	50471	0.1	0
618	50471	0.2	0
618	50471	0.3	0
618	50471	0.4	0
618	50471	0.5	0
618	50471	0.6	0
618	50471	0.7	0
618	50471	0.8	0
618	50471	0.9	0
618	50471	1	0
618	50471	1.1	0
618	50471	1.2	0
618	50471	1.3	0
618	50471	1.4	0
618	50471	1.5	0
618	50471	1.6	0
618	50471	1.7	0
618	50471	1.8	0
618	50471	1.9	0
618	50471	2	0
618	50471	2.1	0
618	50471	2.2	0
618	50471	2.3	0
618	50471	2.4	0
618	50471	2.5	0
618	50471	2.6	0
618	50471	2.7	0
618	50471	2.752302211657	0
619	50471	0.1	0
619	50471	0.2	0
619	50471	0.3	0
619	50471	0.4	0
619	50471	0.5	0
619	50471	0.6	0
619	50471	0.7	0
619	50471	0.8	0
619	50471	0.9	0
619	50471	1	0
619	50471	1.1	0
619	50471	1.2	0
619	50471	1.3	0
619	50471	1.4	0
619	50471	1.5	0
619	50471	1.6	0
619	50471	1.7	0
619	50471	1.8	0
619	50471	1.9	0
619	50471	2	0
619	50471	2.1	0
619	50471	2.2	0
619	50471	2.3	0
619	50471	2.4	0
619	50471	2.5	0
619	50471	2.6	0
619	50471	2.7	0
619	50471	2.752302211657	0
620	50471	0.1	0
620	50471	0.2	0
620	50471	0.3	0
620	50471	0.4	0
620	50471	0.5	0
620	50471	0.6	0
620	50471	0.7	0
620	50471	0.8	0
620	50471	0.9	0
620	50471	1	0
620	50471	1.1	0
620	50471	1.2	0
620	50471	1.3	0
620	50471	1.4	0
620	50471	1.5	0
620	50471	1.6	0
620	50471	1.7	0
620	50471	1.8	0
620	50471	1.9	0
620	50471	2	0
620	50471	2.1	0
620	50471	2.2	0
620	50471	2.3	0
620	50471	2.4	0
620	50471	2.5	0
620	50471	2.6	0
620	50471	2.7	0
620	50471	2.752302211657	0

