file 731334 1621847132                                          
version 2
run TnTAODV30_Mobility_0mps-0-20210524-16:05:11-4126
attr configname TnTAODV30_Mobility_0mps
attr datetime 20210524-16:05:11
attr experiment TnTAODV30_Mobility_0mps
attr inifile AODV30_TnT.ini
attr iterationvars ""
attr iterationvarsf ""
attr measurement ""
attr network AODV30_TnT
attr processid 4126
attr repetition 0
attr replication #0
attr resultdir results
attr runnumber 0
attr seedset 0
param **.H*.mobility.typename "\"MassMobility\""
param **.S*.mobility.typename "\"MassMobility\""
param **.*.mobility.changeInterval "normal(5s, 0.1s)"
param **.*.mobility.angleDelta "normal(0deg, 30deg)"
param **.*.mobility.speed "normal(0mps, 0.01mps)"
param **.wlan[*].typename "\"AckingWirelessInterface\""
param **.wlan[*].bitrate 2Mbps
param **.wlan[*].mac.headerLength 23B
param **.wlan[*].radio.typename "\"UnitDiskRadio\""
param **.wlan[*].radio.transmitter.headerLength 96b
param **.wlan[*].radio.transmitter.communicationRange 250m
param **.wlan[*].radio.transmitter.interferenceRange 0m
param **.wlan[*].radio.transmitter.detectionRange 0m
param **.wlan[*].radio.receiver.ignoreInterference true
param **.host[*].mobility.typename "\"StationaryMobility\""
param **.mobility.constraintAreaMinZ 0m
param **.mobility.constraintAreaMaxZ 0m
param **.mobility.constraintAreaMinX 10m
param **.mobility.constraintAreaMinY 10m
param **.mobility.constraintAreaMaxX 1000m
param **.mobility.constraintAreaMaxY 700m
param *.visualizer.sceneVisualizer.descriptionFigure "\"title\""
param *.S*.numApps 1
param *.S*.app[0].typename "\"UdpBasicApp\""
param *.S*.app[0].destPort 1000
param *.S*.app[0].sendInterval 0.25s
param *.S*.app[0].startTime 0s
param *.S*.app[0].messageLength 512Byte
param *.S*.app[0].packetName "\"UDPdata\""
param *.Bs1.numApps 1
param *.Bs1.app[0].typename "\"UdpSink\""
param *.Bs1.app[0].localPort 1000
param *.Bs2.numApps 1
param *.Bs2.app[0].typename "\"UdpSink\""
param *.Bs2.app[0].localPort 1000
param *.S1.app[0].destAddresses "\"Bs1\""
param *.S2.app[0].destAddresses "\"Bs1\""
param *.S3.app[0].destAddresses "\"Bs2\""
param *.S4.app[0].destAddresses "\"Bs2\""
param *.S5.app[0].destAddresses "\"Bs1\""
param **.hasStatus true

vector 0 AODV30_TnT.Bs1.wlan[0].radio radioMode:vector ETV
attr interpolationmode sample-hold
attr source radioModeChanged
attr title "Radio mode, vector"
vector 1 AODV30_TnT.S5.wlan[0].radio radioMode:vector ETV
attr interpolationmode sample-hold
attr source radioModeChanged
attr title "Radio mode, vector"
vector 2 AODV30_TnT.S1.wlan[0].radio radioMode:vector ETV
attr interpolationmode sample-hold
attr source radioModeChanged
attr title "Radio mode, vector"
vector 3 AODV30_TnT.S2.wlan[0].radio radioMode:vector ETV
attr interpolationmode sample-hold
attr source radioModeChanged
attr title "Radio mode, vector"
vector 4 AODV30_TnT.S3.wlan[0].radio radioMode:vector ETV
attr interpolationmode sample-hold
attr source radioModeChanged
attr title "Radio mode, vector"
vector 5 AODV30_TnT.S4.wlan[0].radio radioMode:vector ETV
attr interpolationmode sample-hold
attr source radioModeChanged
attr title "Radio mode, vector"
vector 6 AODV30_TnT.H1.wlan[0].radio radioMode:vector ETV
attr interpolationmode sample-hold
attr source radioModeChanged
attr title "Radio mode, vector"
vector 7 AODV30_TnT.H2.wlan[0].radio radioMode:vector ETV
attr interpolationmode sample-hold
attr source radioModeChanged
attr title "Radio mode, vector"
vector 8 AODV30_TnT.H3.wlan[0].radio radioMode:vector ETV
attr interpolationmode sample-hold
attr source radioModeChanged
attr title "Radio mode, vector"
vector 9 AODV30_TnT.H4.wlan[0].radio radioMode:vector ETV
attr interpolationmode sample-hold
attr source radioModeChanged
attr title "Radio mode, vector"
vector 10 AODV30_TnT.H5.wlan[0].radio radioMode:vector ETV
attr interpolationmode sample-hold
attr source radioModeChanged
attr title "Radio mode, vector"
vector 11 AODV30_TnT.H6.wlan[0].radio radioMode:vector ETV
attr interpolationmode sample-hold
attr source radioModeChanged
attr title "Radio mode, vector"
vector 12 AODV30_TnT.H7.wlan[0].radio radioMode:vector ETV
attr interpolationmode sample-hold
attr source radioModeChanged
attr title "Radio mode, vector"
vector 13 AODV30_TnT.H8.wlan[0].radio radioMode:vector ETV
attr interpolationmode sample-hold
attr source radioModeChanged
attr title "Radio mode, vector"
vector 14 AODV30_TnT.H9.wlan[0].radio radioMode:vector ETV
attr interpolationmode sample-hold
attr source radioModeChanged
attr title "Radio mode, vector"
vector 15 AODV30_TnT.H10.wlan[0].radio radioMode:vector ETV
attr interpolationmode sample-hold
attr source radioModeChanged
attr title "Radio mode, vector"
vector 16 AODV30_TnT.H11.wlan[0].radio radioMode:vector ETV
attr interpolationmode sample-hold
attr source radioModeChanged
attr title "Radio mode, vector"
vector 17 AODV30_TnT.H12.wlan[0].radio radioMode:vector ETV
attr interpolationmode sample-hold
attr source radioModeChanged
attr title "Radio mode, vector"
vector 18 AODV30_TnT.H13.wlan[0].radio radioMode:vector ETV
attr interpolationmode sample-hold
attr source radioModeChanged
attr title "Radio mode, vector"
vector 19 AODV30_TnT.H14.wlan[0].radio radioMode:vector ETV
attr interpolationmode sample-hold
attr source radioModeChanged
attr title "Radio mode, vector"
vector 20 AODV30_TnT.H15.wlan[0].radio radioMode:vector ETV
attr interpolationmode sample-hold
attr source radioModeChanged
attr title "Radio mode, vector"
vector 21 AODV30_TnT.H16.wlan[0].radio radioMode:vector ETV
attr interpolationmode sample-hold
attr source radioModeChanged
attr title "Radio mode, vector"
vector 22 AODV30_TnT.H17.wlan[0].radio radioMode:vector ETV
attr interpolationmode sample-hold
attr source radioModeChanged
attr title "Radio mode, vector"
vector 23 AODV30_TnT.H18.wlan[0].radio radioMode:vector ETV
attr interpolationmode sample-hold
attr source radioModeChanged
attr title "Radio mode, vector"
vector 24 AODV30_TnT.H19.wlan[0].radio radioMode:vector ETV
attr interpolationmode sample-hold
attr source radioModeChanged
attr title "Radio mode, vector"
vector 25 AODV30_TnT.H20.wlan[0].radio radioMode:vector ETV
attr interpolationmode sample-hold
attr source radioModeChanged
attr title "Radio mode, vector"
vector 26 AODV30_TnT.Bs2.wlan[0].radio radioMode:vector ETV
attr interpolationmode sample-hold
attr source radioModeChanged
attr title "Radio mode, vector"
vector 27 AODV30_TnT.H21.wlan[0].radio radioMode:vector ETV
attr interpolationmode sample-hold
attr source radioModeChanged
attr title "Radio mode, vector"
vector 28 AODV30_TnT.H22.wlan[0].radio radioMode:vector ETV
attr interpolationmode sample-hold
attr source radioModeChanged
attr title "Radio mode, vector"
vector 29 AODV30_TnT.H23.wlan[0].radio radioMode:vector ETV
attr interpolationmode sample-hold
attr source radioModeChanged
attr title "Radio mode, vector"
vector 30 AODV30_TnT.H24.wlan[0].radio radioMode:vector ETV
attr interpolationmode sample-hold
attr source radioModeChanged
attr title "Radio mode, vector"
vector 31 AODV30_TnT.H25.wlan[0].radio radioMode:vector ETV
attr interpolationmode sample-hold
attr source radioModeChanged
attr title "Radio mode, vector"
vector 32 AODV30_TnT.H26.wlan[0].radio radioMode:vector ETV
attr interpolationmode sample-hold
attr source radioModeChanged
attr title "Radio mode, vector"
vector 33 AODV30_TnT.H27.wlan[0].radio radioMode:vector ETV
attr interpolationmode sample-hold
attr source radioModeChanged
attr title "Radio mode, vector"
vector 34 AODV30_TnT.H28.wlan[0].radio radioMode:vector ETV
attr interpolationmode sample-hold
attr source radioModeChanged
attr title "Radio mode, vector"
vector 35 AODV30_TnT.H29.wlan[0].radio radioMode:vector ETV
attr interpolationmode sample-hold
attr source radioModeChanged
attr title "Radio mode, vector"
vector 36 AODV30_TnT.H30.wlan[0].radio radioMode:vector ETV
attr interpolationmode sample-hold
attr source radioModeChanged
attr title "Radio mode, vector"
vector 37 AODV30_TnT.Bs1.wlan[0].radio receptionState:vector ETV
attr interpolationmode sample-hold
attr source receptionStateChanged
attr title "Radio reception state, vector"
vector 38 AODV30_TnT.Bs1.wlan[0].radio transmissionState:vector ETV
attr interpolationmode sample-hold
attr source transmissionStateChanged
attr title "Radio transmission state, vector"
vector 39 AODV30_TnT.S5.wlan[0].radio receptionState:vector ETV
attr interpolationmode sample-hold
attr source receptionStateChanged
attr title "Radio reception state, vector"
vector 40 AODV30_TnT.S5.wlan[0].radio transmissionState:vector ETV
attr interpolationmode sample-hold
attr source transmissionStateChanged
attr title "Radio transmission state, vector"
vector 41 AODV30_TnT.S1.wlan[0].radio receptionState:vector ETV
attr interpolationmode sample-hold
attr source receptionStateChanged
attr title "Radio reception state, vector"
vector 42 AODV30_TnT.S1.wlan[0].radio transmissionState:vector ETV
attr interpolationmode sample-hold
attr source transmissionStateChanged
attr title "Radio transmission state, vector"
vector 43 AODV30_TnT.S2.wlan[0].radio receptionState:vector ETV
attr interpolationmode sample-hold
attr source receptionStateChanged
attr title "Radio reception state, vector"
vector 44 AODV30_TnT.S2.wlan[0].radio transmissionState:vector ETV
attr interpolationmode sample-hold
attr source transmissionStateChanged
attr title "Radio transmission state, vector"
vector 45 AODV30_TnT.S3.wlan[0].radio receptionState:vector ETV
attr interpolationmode sample-hold
attr source receptionStateChanged
attr title "Radio reception state, vector"
vector 46 AODV30_TnT.S3.wlan[0].radio transmissionState:vector ETV
attr interpolationmode sample-hold
attr source transmissionStateChanged
attr title "Radio transmission state, vector"
vector 47 AODV30_TnT.S4.wlan[0].radio receptionState:vector ETV
attr interpolationmode sample-hold
attr source receptionStateChanged
attr title "Radio reception state, vector"
vector 48 AODV30_TnT.S4.wlan[0].radio transmissionState:vector ETV
attr interpolationmode sample-hold
attr source transmissionStateChanged
attr title "Radio transmission state, vector"
vector 49 AODV30_TnT.H1.wlan[0].radio receptionState:vector ETV
attr interpolationmode sample-hold
attr source receptionStateChanged
attr title "Radio reception state, vector"
vector 50 AODV30_TnT.H1.wlan[0].radio transmissionState:vector ETV
attr interpolationmode sample-hold
attr source transmissionStateChanged
attr title "Radio transmission state, vector"
vector 51 AODV30_TnT.H2.wlan[0].radio receptionState:vector ETV
attr interpolationmode sample-hold
attr source receptionStateChanged
attr title "Radio reception state, vector"
vector 52 AODV30_TnT.H2.wlan[0].radio transmissionState:vector ETV
attr interpolationmode sample-hold
attr source transmissionStateChanged
attr title "Radio transmission state, vector"
vector 53 AODV30_TnT.H3.wlan[0].radio receptionState:vector ETV
attr interpolationmode sample-hold
attr source receptionStateChanged
attr title "Radio reception state, vector"
vector 54 AODV30_TnT.H3.wlan[0].radio transmissionState:vector ETV
attr interpolationmode sample-hold
attr source transmissionStateChanged
attr title "Radio transmission state, vector"
vector 55 AODV30_TnT.H4.wlan[0].radio receptionState:vector ETV
attr interpolationmode sample-hold
attr source receptionStateChanged
attr title "Radio reception state, vector"
vector 56 AODV30_TnT.H4.wlan[0].radio transmissionState:vector ETV
attr interpolationmode sample-hold
attr source transmissionStateChanged
attr title "Radio transmission state, vector"
vector 57 AODV30_TnT.H5.wlan[0].radio receptionState:vector ETV
attr interpolationmode sample-hold
attr source receptionStateChanged
attr title "Radio reception state, vector"
vector 58 AODV30_TnT.H5.wlan[0].radio transmissionState:vector ETV
attr interpolationmode sample-hold
attr source transmissionStateChanged
attr title "Radio transmission state, vector"
vector 59 AODV30_TnT.H6.wlan[0].radio receptionState:vector ETV
attr interpolationmode sample-hold
attr source receptionStateChanged
attr title "Radio reception state, vector"
vector 60 AODV30_TnT.H6.wlan[0].radio transmissionState:vector ETV
attr interpolationmode sample-hold
attr source transmissionStateChanged
attr title "Radio transmission state, vector"
vector 61 AODV30_TnT.H7.wlan[0].radio receptionState:vector ETV
attr interpolationmode sample-hold
attr source receptionStateChanged
attr title "Radio reception state, vector"
vector 62 AODV30_TnT.H7.wlan[0].radio transmissionState:vector ETV
attr interpolationmode sample-hold
attr source transmissionStateChanged
attr title "Radio transmission state, vector"
vector 63 AODV30_TnT.H8.wlan[0].radio receptionState:vector ETV
attr interpolationmode sample-hold
attr source receptionStateChanged
attr title "Radio reception state, vector"
vector 64 AODV30_TnT.H8.wlan[0].radio transmissionState:vector ETV
attr interpolationmode sample-hold
attr source transmissionStateChanged
attr title "Radio transmission state, vector"
vector 65 AODV30_TnT.H9.wlan[0].radio receptionState:vector ETV
attr interpolationmode sample-hold
attr source receptionStateChanged
attr title "Radio reception state, vector"
vector 66 AODV30_TnT.H9.wlan[0].radio transmissionState:vector ETV
attr interpolationmode sample-hold
attr source transmissionStateChanged
attr title "Radio transmission state, vector"
vector 67 AODV30_TnT.H10.wlan[0].radio receptionState:vector ETV
attr interpolationmode sample-hold
attr source receptionStateChanged
attr title "Radio reception state, vector"
vector 68 AODV30_TnT.H10.wlan[0].radio transmissionState:vector ETV
attr interpolationmode sample-hold
attr source transmissionStateChanged
attr title "Radio transmission state, vector"
vector 69 AODV30_TnT.H11.wlan[0].radio receptionState:vector ETV
attr interpolationmode sample-hold
attr source receptionStateChanged
attr title "Radio reception state, vector"
vector 70 AODV30_TnT.H11.wlan[0].radio transmissionState:vector ETV
attr interpolationmode sample-hold
attr source transmissionStateChanged
attr title "Radio transmission state, vector"
vector 71 AODV30_TnT.H12.wlan[0].radio receptionState:vector ETV
attr interpolationmode sample-hold
attr source receptionStateChanged
attr title "Radio reception state, vector"
vector 72 AODV30_TnT.H12.wlan[0].radio transmissionState:vector ETV
attr interpolationmode sample-hold
attr source transmissionStateChanged
attr title "Radio transmission state, vector"
vector 73 AODV30_TnT.H13.wlan[0].radio receptionState:vector ETV
attr interpolationmode sample-hold
attr source receptionStateChanged
attr title "Radio reception state, vector"
vector 74 AODV30_TnT.H13.wlan[0].radio transmissionState:vector ETV
attr interpolationmode sample-hold
attr source transmissionStateChanged
attr title "Radio transmission state, vector"
vector 75 AODV30_TnT.H14.wlan[0].radio receptionState:vector ETV
attr interpolationmode sample-hold
attr source receptionStateChanged
attr title "Radio reception state, vector"
vector 76 AODV30_TnT.H14.wlan[0].radio transmissionState:vector ETV
attr interpolationmode sample-hold
attr source transmissionStateChanged
attr title "Radio transmission state, vector"
vector 77 AODV30_TnT.H15.wlan[0].radio receptionState:vector ETV
attr interpolationmode sample-hold
attr source receptionStateChanged
attr title "Radio reception state, vector"
vector 78 AODV30_TnT.H15.wlan[0].radio transmissionState:vector ETV
attr interpolationmode sample-hold
attr source transmissionStateChanged
attr title "Radio transmission state, vector"
vector 79 AODV30_TnT.H16.wlan[0].radio receptionState:vector ETV
attr interpolationmode sample-hold
attr source receptionStateChanged
attr title "Radio reception state, vector"
vector 80 AODV30_TnT.H16.wlan[0].radio transmissionState:vector ETV
attr interpolationmode sample-hold
attr source transmissionStateChanged
attr title "Radio transmission state, vector"
vector 81 AODV30_TnT.H17.wlan[0].radio receptionState:vector ETV
attr interpolationmode sample-hold
attr source receptionStateChanged
attr title "Radio reception state, vector"
vector 82 AODV30_TnT.H17.wlan[0].radio transmissionState:vector ETV
attr interpolationmode sample-hold
attr source transmissionStateChanged
attr title "Radio transmission state, vector"
vector 83 AODV30_TnT.H18.wlan[0].radio receptionState:vector ETV
attr interpolationmode sample-hold
attr source receptionStateChanged
attr title "Radio reception state, vector"
vector 84 AODV30_TnT.H18.wlan[0].radio transmissionState:vector ETV
attr interpolationmode sample-hold
attr source transmissionStateChanged
attr title "Radio transmission state, vector"
vector 85 AODV30_TnT.H19.wlan[0].radio receptionState:vector ETV
attr interpolationmode sample-hold
attr source receptionStateChanged
attr title "Radio reception state, vector"
vector 86 AODV30_TnT.H19.wlan[0].radio transmissionState:vector ETV
attr interpolationmode sample-hold
attr source transmissionStateChanged
attr title "Radio transmission state, vector"
vector 87 AODV30_TnT.H20.wlan[0].radio receptionState:vector ETV
attr interpolationmode sample-hold
attr source receptionStateChanged
attr title "Radio reception state, vector"
vector 88 AODV30_TnT.H20.wlan[0].radio transmissionState:vector ETV
attr interpolationmode sample-hold
attr source transmissionStateChanged
attr title "Radio transmission state, vector"
vector 89 AODV30_TnT.Bs2.wlan[0].radio receptionState:vector ETV
attr interpolationmode sample-hold
attr source receptionStateChanged
attr title "Radio reception state, vector"
vector 90 AODV30_TnT.Bs2.wlan[0].radio transmissionState:vector ETV
attr interpolationmode sample-hold
attr source transmissionStateChanged
attr title "Radio transmission state, vector"
vector 91 AODV30_TnT.H21.wlan[0].radio receptionState:vector ETV
attr interpolationmode sample-hold
attr source receptionStateChanged
attr title "Radio reception state, vector"
vector 92 AODV30_TnT.H21.wlan[0].radio transmissionState:vector ETV
attr interpolationmode sample-hold
attr source transmissionStateChanged
attr title "Radio transmission state, vector"
vector 93 AODV30_TnT.H22.wlan[0].radio receptionState:vector ETV
attr interpolationmode sample-hold
attr source receptionStateChanged
attr title "Radio reception state, vector"
vector 94 AODV30_TnT.H22.wlan[0].radio transmissionState:vector ETV
attr interpolationmode sample-hold
attr source transmissionStateChanged
attr title "Radio transmission state, vector"
vector 95 AODV30_TnT.H23.wlan[0].radio receptionState:vector ETV
attr interpolationmode sample-hold
attr source receptionStateChanged
attr title "Radio reception state, vector"
vector 96 AODV30_TnT.H23.wlan[0].radio transmissionState:vector ETV
attr interpolationmode sample-hold
attr source transmissionStateChanged
attr title "Radio transmission state, vector"
vector 97 AODV30_TnT.H24.wlan[0].radio receptionState:vector ETV
attr interpolationmode sample-hold
attr source receptionStateChanged
attr title "Radio reception state, vector"
vector 98 AODV30_TnT.H24.wlan[0].radio transmissionState:vector ETV
attr interpolationmode sample-hold
attr source transmissionStateChanged
attr title "Radio transmission state, vector"
vector 99 AODV30_TnT.H25.wlan[0].radio receptionState:vector ETV
attr interpolationmode sample-hold
attr source receptionStateChanged
attr title "Radio reception state, vector"
vector 100 AODV30_TnT.H25.wlan[0].radio transmissionState:vector ETV
attr interpolationmode sample-hold
attr source transmissionStateChanged
attr title "Radio transmission state, vector"
vector 101 AODV30_TnT.H26.wlan[0].radio receptionState:vector ETV
attr interpolationmode sample-hold
attr source receptionStateChanged
attr title "Radio reception state, vector"
vector 102 AODV30_TnT.H26.wlan[0].radio transmissionState:vector ETV
attr interpolationmode sample-hold
attr source transmissionStateChanged
attr title "Radio transmission state, vector"
vector 103 AODV30_TnT.H27.wlan[0].radio receptionState:vector ETV
attr interpolationmode sample-hold
attr source receptionStateChanged
attr title "Radio reception state, vector"
vector 104 AODV30_TnT.H27.wlan[0].radio transmissionState:vector ETV
attr interpolationmode sample-hold
attr source transmissionStateChanged
attr title "Radio transmission state, vector"
vector 105 AODV30_TnT.H28.wlan[0].radio receptionState:vector ETV
attr interpolationmode sample-hold
attr source receptionStateChanged
attr title "Radio reception state, vector"
vector 106 AODV30_TnT.H28.wlan[0].radio transmissionState:vector ETV
attr interpolationmode sample-hold
attr source transmissionStateChanged
attr title "Radio transmission state, vector"
vector 107 AODV30_TnT.H29.wlan[0].radio receptionState:vector ETV
attr interpolationmode sample-hold
attr source receptionStateChanged
attr title "Radio reception state, vector"
vector 108 AODV30_TnT.H29.wlan[0].radio transmissionState:vector ETV
attr interpolationmode sample-hold
attr source transmissionStateChanged
attr title "Radio transmission state, vector"
vector 109 AODV30_TnT.H30.wlan[0].radio receptionState:vector ETV
attr interpolationmode sample-hold
attr source receptionStateChanged
attr title "Radio reception state, vector"
vector 110 AODV30_TnT.H30.wlan[0].radio transmissionState:vector ETV
attr interpolationmode sample-hold
attr source transmissionStateChanged
attr title "Radio transmission state, vector"
vector 111 AODV30_TnT.S5.app[0] packetSent:vector(packetBytes) ETV
attr interpolationmode none
attr source packetSent
attr title "packets sent, vector(packetBytes)"
vector 112 AODV30_TnT.S1.app[0] packetSent:vector(packetBytes) ETV
attr interpolationmode none
attr source packetSent
attr title "packets sent, vector(packetBytes)"
vector 113 AODV30_TnT.S2.app[0] packetSent:vector(packetBytes) ETV
attr interpolationmode none
attr source packetSent
attr title "packets sent, vector(packetBytes)"
vector 114 AODV30_TnT.S3.app[0] packetSent:vector(packetBytes) ETV
attr interpolationmode none
attr source packetSent
attr title "packets sent, vector(packetBytes)"
vector 115 AODV30_TnT.S4.app[0] packetSent:vector(packetBytes) ETV
attr interpolationmode none
attr source packetSent
attr title "packets sent, vector(packetBytes)"
vector 116 AODV30_TnT.S5.udp packetSent:vector(packetBytes) ETV
attr interpolationmode none
attr source packetSent
attr title "packets sent, vector(packetBytes)"
vector 117 AODV30_TnT.S1.udp packetSent:vector(packetBytes) ETV
attr interpolationmode none
attr source packetSent
attr title "packets sent, vector(packetBytes)"
vector 118 AODV30_TnT.S2.udp packetSent:vector(packetBytes) ETV
attr interpolationmode none
attr source packetSent
attr title "packets sent, vector(packetBytes)"
vector 119 AODV30_TnT.S3.udp packetSent:vector(packetBytes) ETV
attr interpolationmode none
attr source packetSent
attr title "packets sent, vector(packetBytes)"
vector 120 AODV30_TnT.S4.udp packetSent:vector(packetBytes) ETV
attr interpolationmode none
attr source packetSent
attr title "packets sent, vector(packetBytes)"
vector 121 AODV30_TnT.S3.wlan[0].mac rcvdPkFromHl:vector(packetBytes) ETV
attr interpolationmode none
attr source packetReceivedFromUpper
attr title "packets received from higher layer, vector(packetBytes)"
vector 122 AODV30_TnT.S3.wlan[0].mac.queue packetPushed:vector(packetBytes) ETV
attr interpolationmode none
attr title "packet pushed, vector(packetBytes)"
vector 123 AODV30_TnT.S3.wlan[0].mac.queue queueLength:vector ETV
attr interpolationmode sample-hold
attr source "count(packetPushed) - count(packetPopped) - count(packetRemoved) - count(packetDropped)"
attr title "queue length, vector"
vector 124 AODV30_TnT.S3.wlan[0].mac.queue packetPopped:vector(packetBytes) ETV
attr interpolationmode none
attr title "packet popped, vector(packetBytes)"
vector 125 AODV30_TnT.S3.wlan[0].mac.queue queueingTime:vector ETV
attr interpolationmode none
attr source queueingTime(packetPopped)
attr title "queueing times, vector"
attr unit s
vector 126 AODV30_TnT.S3.wlan[0].mac sentDownPk:vector(packetBytes) ETV
attr interpolationmode none
attr source packetSentToLower
attr title "packets sent to lower layer, vector(packetBytes)"
vector 127 AODV30_TnT.H6.wlan[0].mac rcvdPkFromLl:vector(packetBytes) ETV
attr interpolationmode none
attr source packetReceivedFromLower
attr title "packets received from lower layer, vector(packetBytes)"
vector 128 AODV30_TnT.H6.wlan[0].mac passedUpPk:vector(packetBytes) ETV
attr interpolationmode none
attr source packetSentToUpper
attr title "packets passed to higher layer, vector(packetBytes)"
vector 129 AODV30_TnT.H6.udp packetReceived:vector(packetBytes) ETV
attr interpolationmode none
attr source packetReceived
attr title "packets received, vector(packetBytes)"
vector 130 AODV30_TnT.H6.udp passedUpPk:vector(count) ETV
attr interpolationmode none
attr source packetSentToUpper
attr title "packets passed up, vector(count)"
vector 131 AODV30_TnT.H10.wlan[0].mac rcvdPkFromLl:vector(packetBytes) ETV
attr interpolationmode none
attr source packetReceivedFromLower
attr title "packets received from lower layer, vector(packetBytes)"
vector 132 AODV30_TnT.H10.wlan[0].mac passedUpPk:vector(packetBytes) ETV
attr interpolationmode none
attr source packetSentToUpper
attr title "packets passed to higher layer, vector(packetBytes)"
vector 133 AODV30_TnT.H10.udp packetReceived:vector(packetBytes) ETV
attr interpolationmode none
attr source packetReceived
attr title "packets received, vector(packetBytes)"
vector 134 AODV30_TnT.H10.udp passedUpPk:vector(count) ETV
attr interpolationmode none
attr source packetSentToUpper
attr title "packets passed up, vector(count)"
vector 135 AODV30_TnT.H27.wlan[0].mac rcvdPkFromLl:vector(packetBytes) ETV
attr interpolationmode none
attr source packetReceivedFromLower
attr title "packets received from lower layer, vector(packetBytes)"
vector 136 AODV30_TnT.H27.wlan[0].mac passedUpPk:vector(packetBytes) ETV
attr interpolationmode none
attr source packetSentToUpper
attr title "packets passed to higher layer, vector(packetBytes)"
vector 137 AODV30_TnT.H27.udp packetReceived:vector(packetBytes) ETV
attr interpolationmode none
attr source packetReceived
attr title "packets received, vector(packetBytes)"
vector 138 AODV30_TnT.H27.udp passedUpPk:vector(count) ETV
attr interpolationmode none
attr source packetSentToUpper
attr title "packets passed up, vector(count)"
vector 139 AODV30_TnT.S2.wlan[0].mac rcvdPkFromLl:vector(packetBytes) ETV
attr interpolationmode none
attr source packetReceivedFromLower
attr title "packets received from lower layer, vector(packetBytes)"
vector 140 AODV30_TnT.S2.wlan[0].mac passedUpPk:vector(packetBytes) ETV
attr interpolationmode none
attr source packetSentToUpper
attr title "packets passed to higher layer, vector(packetBytes)"
vector 141 AODV30_TnT.S2.udp packetReceived:vector(packetBytes) ETV
attr interpolationmode none
attr source packetReceived
attr title "packets received, vector(packetBytes)"
vector 142 AODV30_TnT.S2.udp passedUpPk:vector(count) ETV
attr interpolationmode none
attr source packetSentToUpper
attr title "packets passed up, vector(count)"
vector 143 AODV30_TnT.H30.wlan[0].mac rcvdPkFromLl:vector(packetBytes) ETV
attr interpolationmode none
attr source packetReceivedFromLower
attr title "packets received from lower layer, vector(packetBytes)"
vector 144 AODV30_TnT.H30.wlan[0].mac passedUpPk:vector(packetBytes) ETV
attr interpolationmode none
attr source packetSentToUpper
attr title "packets passed to higher layer, vector(packetBytes)"
vector 145 AODV30_TnT.H30.udp packetReceived:vector(packetBytes) ETV
attr interpolationmode none
attr source packetReceived
attr title "packets received, vector(packetBytes)"
vector 146 AODV30_TnT.H30.udp passedUpPk:vector(count) ETV
attr interpolationmode none
attr source packetSentToUpper
attr title "packets passed up, vector(count)"
vector 147 AODV30_TnT.H12.wlan[0].mac rcvdPkFromLl:vector(packetBytes) ETV
attr interpolationmode none
attr source packetReceivedFromLower
attr title "packets received from lower layer, vector(packetBytes)"
vector 148 AODV30_TnT.H12.wlan[0].mac passedUpPk:vector(packetBytes) ETV
attr interpolationmode none
attr source packetSentToUpper
attr title "packets passed to higher layer, vector(packetBytes)"
vector 149 AODV30_TnT.H12.udp packetReceived:vector(packetBytes) ETV
attr interpolationmode none
attr source packetReceived
attr title "packets received, vector(packetBytes)"
vector 150 AODV30_TnT.H12.udp passedUpPk:vector(count) ETV
attr interpolationmode none
attr source packetSentToUpper
attr title "packets passed up, vector(count)"
vector 151 AODV30_TnT.H14.wlan[0].mac rcvdPkFromLl:vector(packetBytes) ETV
attr interpolationmode none
attr source packetReceivedFromLower
attr title "packets received from lower layer, vector(packetBytes)"
vector 152 AODV30_TnT.H14.wlan[0].mac passedUpPk:vector(packetBytes) ETV
attr interpolationmode none
attr source packetSentToUpper
attr title "packets passed to higher layer, vector(packetBytes)"
vector 153 AODV30_TnT.H14.udp packetReceived:vector(packetBytes) ETV
attr interpolationmode none
attr source packetReceived
attr title "packets received, vector(packetBytes)"
vector 154 AODV30_TnT.H14.udp passedUpPk:vector(count) ETV
attr interpolationmode none
attr source packetSentToUpper
attr title "packets passed up, vector(count)"
vector 155 AODV30_TnT.H16.wlan[0].mac rcvdPkFromLl:vector(packetBytes) ETV
attr interpolationmode none
attr source packetReceivedFromLower
attr title "packets received from lower layer, vector(packetBytes)"
vector 156 AODV30_TnT.H16.wlan[0].mac passedUpPk:vector(packetBytes) ETV
attr interpolationmode none
attr source packetSentToUpper
attr title "packets passed to higher layer, vector(packetBytes)"
vector 157 AODV30_TnT.H16.udp packetReceived:vector(packetBytes) ETV
attr interpolationmode none
attr source packetReceived
attr title "packets received, vector(packetBytes)"
vector 158 AODV30_TnT.H16.udp passedUpPk:vector(count) ETV
attr interpolationmode none
attr source packetSentToUpper
attr title "packets passed up, vector(count)"
vector 159 AODV30_TnT.H23.wlan[0].mac rcvdPkFromLl:vector(packetBytes) ETV
attr interpolationmode none
attr source packetReceivedFromLower
attr title "packets received from lower layer, vector(packetBytes)"
vector 160 AODV30_TnT.H23.wlan[0].mac passedUpPk:vector(packetBytes) ETV
attr interpolationmode none
attr source packetSentToUpper
attr title "packets passed to higher layer, vector(packetBytes)"
vector 161 AODV30_TnT.H23.udp packetReceived:vector(packetBytes) ETV
attr interpolationmode none
attr source packetReceived
attr title "packets received, vector(packetBytes)"
vector 162 AODV30_TnT.H23.udp passedUpPk:vector(count) ETV
attr interpolationmode none
attr source packetSentToUpper
attr title "packets passed up, vector(count)"
vector 163 AODV30_TnT.S1.wlan[0].mac rcvdPkFromHl:vector(packetBytes) ETV
attr interpolationmode none
attr source packetReceivedFromUpper
attr title "packets received from higher layer, vector(packetBytes)"
vector 164 AODV30_TnT.S1.wlan[0].mac.queue packetPushed:vector(packetBytes) ETV
attr interpolationmode none
attr title "packet pushed, vector(packetBytes)"
vector 165 AODV30_TnT.S1.wlan[0].mac.queue queueLength:vector ETV
attr interpolationmode sample-hold
attr source "count(packetPushed) - count(packetPopped) - count(packetRemoved) - count(packetDropped)"
attr title "queue length, vector"
vector 166 AODV30_TnT.S1.wlan[0].mac.queue packetPopped:vector(packetBytes) ETV
attr interpolationmode none
attr title "packet popped, vector(packetBytes)"
vector 167 AODV30_TnT.S1.wlan[0].mac.queue queueingTime:vector ETV
attr interpolationmode none
attr source queueingTime(packetPopped)
attr title "queueing times, vector"
attr unit s
vector 168 AODV30_TnT.S1.wlan[0].mac sentDownPk:vector(packetBytes) ETV
attr interpolationmode none
attr source packetSentToLower
attr title "packets sent to lower layer, vector(packetBytes)"
vector 169 AODV30_TnT.H12.udp packetSent:vector(packetBytes) ETV
attr interpolationmode none
attr source packetSent
attr title "packets sent, vector(packetBytes)"
vector 170 AODV30_TnT.H12.wlan[0].mac rcvdPkFromHl:vector(packetBytes) ETV
attr interpolationmode none
attr source packetReceivedFromUpper
attr title "packets received from higher layer, vector(packetBytes)"
vector 171 AODV30_TnT.H12.wlan[0].mac.queue packetPushed:vector(packetBytes) ETV
attr interpolationmode none
attr title "packet pushed, vector(packetBytes)"
vector 172 AODV30_TnT.H12.wlan[0].mac.queue queueLength:vector ETV
attr interpolationmode sample-hold
attr source "count(packetPushed) - count(packetPopped) - count(packetRemoved) - count(packetDropped)"
attr title "queue length, vector"
vector 173 AODV30_TnT.H12.wlan[0].mac.queue packetPopped:vector(packetBytes) ETV
attr interpolationmode none
attr title "packet popped, vector(packetBytes)"
vector 174 AODV30_TnT.H12.wlan[0].mac.queue queueingTime:vector ETV
attr interpolationmode none
attr source queueingTime(packetPopped)
attr title "queueing times, vector"
attr unit s
vector 175 AODV30_TnT.H12.wlan[0].mac sentDownPk:vector(packetBytes) ETV
attr interpolationmode none
attr source packetSentToLower
attr title "packets sent to lower layer, vector(packetBytes)"
vector 176 AODV30_TnT.H29.wlan[0].mac rcvdPkFromLl:vector(packetBytes) ETV
attr interpolationmode none
attr source packetReceivedFromLower
attr title "packets received from lower layer, vector(packetBytes)"
vector 177 AODV30_TnT.H29.wlan[0].mac passedUpPk:vector(packetBytes) ETV
attr interpolationmode none
attr source packetSentToUpper
attr title "packets passed to higher layer, vector(packetBytes)"
vector 178 AODV30_TnT.H29.udp packetReceived:vector(packetBytes) ETV
attr interpolationmode none
attr source packetReceived
attr title "packets received, vector(packetBytes)"
vector 179 AODV30_TnT.H29.udp passedUpPk:vector(count) ETV
attr interpolationmode none
attr source packetSentToUpper
attr title "packets passed up, vector(count)"
vector 180 AODV30_TnT.H8.wlan[0].mac rcvdPkFromLl:vector(packetBytes) ETV
attr interpolationmode none
attr source packetReceivedFromLower
attr title "packets received from lower layer, vector(packetBytes)"
vector 181 AODV30_TnT.H8.wlan[0].mac passedUpPk:vector(packetBytes) ETV
attr interpolationmode none
attr source packetSentToUpper
attr title "packets passed to higher layer, vector(packetBytes)"
vector 182 AODV30_TnT.H8.udp packetReceived:vector(packetBytes) ETV
attr interpolationmode none
attr source packetReceived
attr title "packets received, vector(packetBytes)"
vector 183 AODV30_TnT.H8.udp passedUpPk:vector(count) ETV
attr interpolationmode none
attr source packetSentToUpper
attr title "packets passed up, vector(count)"
vector 184 AODV30_TnT.H1.wlan[0].mac rcvdPkFromLl:vector(packetBytes) ETV
attr interpolationmode none
attr source packetReceivedFromLower
attr title "packets received from lower layer, vector(packetBytes)"
vector 185 AODV30_TnT.H1.wlan[0].mac passedUpPk:vector(packetBytes) ETV
attr interpolationmode none
attr source packetSentToUpper
attr title "packets passed to higher layer, vector(packetBytes)"
vector 186 AODV30_TnT.H1.udp packetReceived:vector(packetBytes) ETV
attr interpolationmode none
attr source packetReceived
attr title "packets received, vector(packetBytes)"
vector 187 AODV30_TnT.H1.udp passedUpPk:vector(count) ETV
attr interpolationmode none
attr source packetSentToUpper
attr title "packets passed up, vector(count)"
vector 188 AODV30_TnT.H3.wlan[0].mac rcvdPkFromLl:vector(packetBytes) ETV
attr interpolationmode none
attr source packetReceivedFromLower
attr title "packets received from lower layer, vector(packetBytes)"
vector 189 AODV30_TnT.H3.wlan[0].mac passedUpPk:vector(packetBytes) ETV
attr interpolationmode none
attr source packetSentToUpper
attr title "packets passed to higher layer, vector(packetBytes)"
vector 190 AODV30_TnT.H3.udp packetReceived:vector(packetBytes) ETV
attr interpolationmode none
attr source packetReceived
attr title "packets received, vector(packetBytes)"
vector 191 AODV30_TnT.H3.udp passedUpPk:vector(count) ETV
attr interpolationmode none
attr source packetSentToUpper
attr title "packets passed up, vector(count)"
vector 192 AODV30_TnT.H15.wlan[0].mac rcvdPkFromLl:vector(packetBytes) ETV
attr interpolationmode none
attr source packetReceivedFromLower
attr title "packets received from lower layer, vector(packetBytes)"
vector 193 AODV30_TnT.H15.wlan[0].mac passedUpPk:vector(packetBytes) ETV
attr interpolationmode none
attr source packetSentToUpper
attr title "packets passed to higher layer, vector(packetBytes)"
vector 194 AODV30_TnT.H15.udp packetReceived:vector(packetBytes) ETV
attr interpolationmode none
attr source packetReceived
attr title "packets received, vector(packetBytes)"
vector 195 AODV30_TnT.H15.udp passedUpPk:vector(count) ETV
attr interpolationmode none
attr source packetSentToUpper
attr title "packets passed up, vector(count)"
vector 196 AODV30_TnT.Bs2.wlan[0].mac rcvdPkFromLl:vector(packetBytes) ETV
attr interpolationmode none
attr source packetReceivedFromLower
attr title "packets received from lower layer, vector(packetBytes)"
vector 197 AODV30_TnT.Bs2.wlan[0].mac passedUpPk:vector(packetBytes) ETV
attr interpolationmode none
attr source packetSentToUpper
attr title "packets passed to higher layer, vector(packetBytes)"
vector 198 AODV30_TnT.Bs2.udp packetReceived:vector(packetBytes) ETV
attr interpolationmode none
attr source packetReceived
attr title "packets received, vector(packetBytes)"
vector 199 AODV30_TnT.Bs2.udp passedUpPk:vector(count) ETV
attr interpolationmode none
attr source packetSentToUpper
attr title "packets passed up, vector(count)"
vector 200 AODV30_TnT.Bs2.udp packetSent:vector(packetBytes) ETV
attr interpolationmode none
attr source packetSent
attr title "packets sent, vector(packetBytes)"
vector 201 AODV30_TnT.Bs2.ipv4.arp arpRequestSent:vector(packetBytes) ETV
attr source arpRequestSent
attr title "ARP request sent, vector(packetBytes)"
vector 202 AODV30_TnT.Bs2.wlan[0].mac rcvdPkFromHl:vector(packetBytes) ETV
attr interpolationmode none
attr source packetReceivedFromUpper
attr title "packets received from higher layer, vector(packetBytes)"
vector 203 AODV30_TnT.Bs2.wlan[0].mac.queue packetPushed:vector(packetBytes) ETV
attr interpolationmode none
attr title "packet pushed, vector(packetBytes)"
vector 204 AODV30_TnT.Bs2.wlan[0].mac.queue queueLength:vector ETV
attr interpolationmode sample-hold
attr source "count(packetPushed) - count(packetPopped) - count(packetRemoved) - count(packetDropped)"
attr title "queue length, vector"
vector 205 AODV30_TnT.Bs2.wlan[0].mac.queue packetPopped:vector(packetBytes) ETV
attr interpolationmode none
attr title "packet popped, vector(packetBytes)"
vector 206 AODV30_TnT.Bs2.wlan[0].mac.queue queueingTime:vector ETV
attr interpolationmode none
attr source queueingTime(packetPopped)
attr title "queueing times, vector"
attr unit s
vector 207 AODV30_TnT.Bs2.wlan[0].mac sentDownPk:vector(packetBytes) ETV
attr interpolationmode none
attr source packetSentToLower
attr title "packets sent to lower layer, vector(packetBytes)"
vector 208 AODV30_TnT.S3.wlan[0].mac rcvdPkFromLl:vector(packetBytes) ETV
attr interpolationmode none
attr source packetReceivedFromLower
attr title "packets received from lower layer, vector(packetBytes)"
vector 209 AODV30_TnT.S3.wlan[0].mac passedUpPk:vector(packetBytes) ETV
attr interpolationmode none
attr source packetSentToUpper
attr title "packets passed to higher layer, vector(packetBytes)"
vector 210 AODV30_TnT.S3.udp packetReceived:vector(packetBytes) ETV
attr interpolationmode none
attr source packetReceived
attr title "packets received, vector(packetBytes)"
vector 211 AODV30_TnT.S3.udp passedUpPk:vector(count) ETV
attr interpolationmode none
attr source packetSentToUpper
attr title "packets passed up, vector(count)"
vector 212 AODV30_TnT.H11.wlan[0].mac rcvdPkFromLl:vector(packetBytes) ETV
attr interpolationmode none
attr source packetReceivedFromLower
attr title "packets received from lower layer, vector(packetBytes)"
vector 213 AODV30_TnT.H11.wlan[0].mac passedUpPk:vector(packetBytes) ETV
attr interpolationmode none
attr source packetSentToUpper
attr title "packets passed to higher layer, vector(packetBytes)"
vector 214 AODV30_TnT.H11.udp packetReceived:vector(packetBytes) ETV
attr interpolationmode none
attr source packetReceived
attr title "packets received, vector(packetBytes)"
vector 215 AODV30_TnT.H11.udp passedUpPk:vector(count) ETV
attr interpolationmode none
attr source packetSentToUpper
attr title "packets passed up, vector(count)"
vector 216 AODV30_TnT.S4.wlan[0].mac rcvdPkFromLl:vector(packetBytes) ETV
attr interpolationmode none
attr source packetReceivedFromLower
attr title "packets received from lower layer, vector(packetBytes)"
vector 217 AODV30_TnT.S4.wlan[0].mac passedUpPk:vector(packetBytes) ETV
attr interpolationmode none
attr source packetSentToUpper
attr title "packets passed to higher layer, vector(packetBytes)"
vector 218 AODV30_TnT.S4.udp packetReceived:vector(packetBytes) ETV
attr interpolationmode none
attr source packetReceived
attr title "packets received, vector(packetBytes)"
vector 219 AODV30_TnT.S4.udp passedUpPk:vector(count) ETV
attr interpolationmode none
attr source packetSentToUpper
attr title "packets passed up, vector(count)"
vector 220 AODV30_TnT.H9.wlan[0].mac rcvdPkFromLl:vector(packetBytes) ETV
attr interpolationmode none
attr source packetReceivedFromLower
attr title "packets received from lower layer, vector(packetBytes)"
vector 221 AODV30_TnT.H9.wlan[0].mac passedUpPk:vector(packetBytes) ETV
attr interpolationmode none
attr source packetSentToUpper
attr title "packets passed to higher layer, vector(packetBytes)"
vector 222 AODV30_TnT.H9.udp packetReceived:vector(packetBytes) ETV
attr interpolationmode none
attr source packetReceived
attr title "packets received, vector(packetBytes)"
vector 223 AODV30_TnT.H9.udp passedUpPk:vector(count) ETV
attr interpolationmode none
attr source packetSentToUpper
attr title "packets passed up, vector(count)"
vector 224 AODV30_TnT.S4.wlan[0].mac rcvdPkFromHl:vector(packetBytes) ETV
attr interpolationmode none
attr source packetReceivedFromUpper
attr title "packets received from higher layer, vector(packetBytes)"
vector 225 AODV30_TnT.S4.wlan[0].mac.queue packetPushed:vector(packetBytes) ETV
attr interpolationmode none
attr title "packet pushed, vector(packetBytes)"
vector 226 AODV30_TnT.S4.wlan[0].mac.queue queueLength:vector ETV
attr interpolationmode sample-hold
attr source "count(packetPushed) - count(packetPopped) - count(packetRemoved) - count(packetDropped)"
attr title "queue length, vector"
vector 227 AODV30_TnT.S4.wlan[0].mac.queue packetPopped:vector(packetBytes) ETV
attr interpolationmode none
attr title "packet popped, vector(packetBytes)"
vector 228 AODV30_TnT.S4.wlan[0].mac.queue queueingTime:vector ETV
attr interpolationmode none
attr source queueingTime(packetPopped)
attr title "queueing times, vector"
attr unit s
vector 229 AODV30_TnT.S4.wlan[0].mac sentDownPk:vector(packetBytes) ETV
attr interpolationmode none
attr source packetSentToLower
attr title "packets sent to lower layer, vector(packetBytes)"
vector 230 AODV30_TnT.H12.ipv4.arp arpReplySent:vector(packetBytes) ETV
attr source arpReplySent
attr title "ARP replies sent, vector(packetBytes)"
vector 231 AODV30_TnT.H25.wlan[0].mac rcvdPkFromLl:vector(packetBytes) ETV
attr interpolationmode none
attr source packetReceivedFromLower
attr title "packets received from lower layer, vector(packetBytes)"
vector 232 AODV30_TnT.H25.wlan[0].mac passedUpPk:vector(packetBytes) ETV
attr interpolationmode none
attr source packetSentToUpper
attr title "packets passed to higher layer, vector(packetBytes)"
vector 233 AODV30_TnT.H21.wlan[0].mac rcvdPkFromLl:vector(packetBytes) ETV
attr interpolationmode none
attr source packetReceivedFromLower
attr title "packets received from lower layer, vector(packetBytes)"
vector 234 AODV30_TnT.H21.wlan[0].mac passedUpPk:vector(packetBytes) ETV
attr interpolationmode none
attr source packetSentToUpper
attr title "packets passed to higher layer, vector(packetBytes)"
vector 235 AODV30_TnT.H27.wlan[0].mac packetDropNotAddressedToUs:vector(packetBytes) ETV
attr interpolationmode none
attr source packetDropReasonIsNotAddressedToUs(packetDropped)
attr title "packet drop: not addressed to us, vector(packetBytes)"
vector 236 AODV30_TnT.H14.wlan[0].mac packetDropNotAddressedToUs:vector(packetBytes) ETV
attr interpolationmode none
attr source packetDropReasonIsNotAddressedToUs(packetDropped)
attr title "packet drop: not addressed to us, vector(packetBytes)"
vector 237 AODV30_TnT.H15.wlan[0].mac packetDropNotAddressedToUs:vector(packetBytes) ETV
attr interpolationmode none
attr source packetDropReasonIsNotAddressedToUs(packetDropped)
attr title "packet drop: not addressed to us, vector(packetBytes)"
vector 238 AODV30_TnT.S3.wlan[0].mac packetDropNotAddressedToUs:vector(packetBytes) ETV
attr interpolationmode none
attr source packetDropReasonIsNotAddressedToUs(packetDropped)
attr title "packet drop: not addressed to us, vector(packetBytes)"
vector 239 AODV30_TnT.H30.wlan[0].mac packetDropNotAddressedToUs:vector(packetBytes) ETV
attr interpolationmode none
attr source packetDropReasonIsNotAddressedToUs(packetDropped)
attr title "packet drop: not addressed to us, vector(packetBytes)"
vector 240 AODV30_TnT.H6.wlan[0].mac packetDropNotAddressedToUs:vector(packetBytes) ETV
attr interpolationmode none
attr source packetDropReasonIsNotAddressedToUs(packetDropped)
attr title "packet drop: not addressed to us, vector(packetBytes)"
vector 241 AODV30_TnT.H11.wlan[0].mac packetDropNotAddressedToUs:vector(packetBytes) ETV
attr interpolationmode none
attr source packetDropReasonIsNotAddressedToUs(packetDropped)
attr title "packet drop: not addressed to us, vector(packetBytes)"
vector 242 AODV30_TnT.S4.wlan[0].mac packetDropNotAddressedToUs:vector(packetBytes) ETV
attr interpolationmode none
attr source packetDropReasonIsNotAddressedToUs(packetDropped)
attr title "packet drop: not addressed to us, vector(packetBytes)"
vector 243 AODV30_TnT.H9.wlan[0].mac packetDropNotAddressedToUs:vector(packetBytes) ETV
attr interpolationmode none
attr source packetDropReasonIsNotAddressedToUs(packetDropped)
attr title "packet drop: not addressed to us, vector(packetBytes)"
vector 244 AODV30_TnT.H16.udp packetSent:vector(packetBytes) ETV
attr interpolationmode none
attr source packetSent
attr title "packets sent, vector(packetBytes)"
vector 245 AODV30_TnT.H16.wlan[0].mac rcvdPkFromHl:vector(packetBytes) ETV
attr interpolationmode none
attr source packetReceivedFromUpper
attr title "packets received from higher layer, vector(packetBytes)"
vector 246 AODV30_TnT.H16.wlan[0].mac.queue packetPushed:vector(packetBytes) ETV
attr interpolationmode none
attr title "packet pushed, vector(packetBytes)"
vector 247 AODV30_TnT.H16.wlan[0].mac.queue queueLength:vector ETV
attr interpolationmode sample-hold
attr source "count(packetPushed) - count(packetPopped) - count(packetRemoved) - count(packetDropped)"
attr title "queue length, vector"
vector 248 AODV30_TnT.H16.wlan[0].mac.queue packetPopped:vector(packetBytes) ETV
attr interpolationmode none
attr title "packet popped, vector(packetBytes)"
vector 249 AODV30_TnT.H16.wlan[0].mac.queue queueingTime:vector ETV
attr interpolationmode none
attr source queueingTime(packetPopped)
attr title "queueing times, vector"
attr unit s
vector 250 AODV30_TnT.H16.wlan[0].mac sentDownPk:vector(packetBytes) ETV
attr interpolationmode none
attr source packetSentToLower
attr title "packets sent to lower layer, vector(packetBytes)"
vector 251 AODV30_TnT.H25.wlan[0].mac packetDropNotAddressedToUs:vector(packetBytes) ETV
attr interpolationmode none
attr source packetDropReasonIsNotAddressedToUs(packetDropped)
attr title "packet drop: not addressed to us, vector(packetBytes)"
vector 252 AODV30_TnT.H21.wlan[0].mac packetDropNotAddressedToUs:vector(packetBytes) ETV
attr interpolationmode none
attr source packetDropReasonIsNotAddressedToUs(packetDropped)
attr title "packet drop: not addressed to us, vector(packetBytes)"
vector 253 AODV30_TnT.S2.wlan[0].mac rcvdPkFromHl:vector(packetBytes) ETV
attr interpolationmode none
attr source packetReceivedFromUpper
attr title "packets received from higher layer, vector(packetBytes)"
vector 254 AODV30_TnT.S2.wlan[0].mac.queue packetPushed:vector(packetBytes) ETV
attr interpolationmode none
attr title "packet pushed, vector(packetBytes)"
vector 255 AODV30_TnT.S2.wlan[0].mac.queue queueLength:vector ETV
attr interpolationmode sample-hold
attr source "count(packetPushed) - count(packetPopped) - count(packetRemoved) - count(packetDropped)"
attr title "queue length, vector"
vector 256 AODV30_TnT.S2.wlan[0].mac.queue packetPopped:vector(packetBytes) ETV
attr interpolationmode none
attr title "packet popped, vector(packetBytes)"
vector 257 AODV30_TnT.S2.wlan[0].mac.queue queueingTime:vector ETV
attr interpolationmode none
attr source queueingTime(packetPopped)
attr title "queueing times, vector"
attr unit s
vector 258 AODV30_TnT.S2.wlan[0].mac sentDownPk:vector(packetBytes) ETV
attr interpolationmode none
attr source packetSentToLower
attr title "packets sent to lower layer, vector(packetBytes)"
vector 259 AODV30_TnT.H17.wlan[0].mac rcvdPkFromLl:vector(packetBytes) ETV
attr interpolationmode none
attr source packetReceivedFromLower
attr title "packets received from lower layer, vector(packetBytes)"
vector 260 AODV30_TnT.H17.wlan[0].mac passedUpPk:vector(packetBytes) ETV
attr interpolationmode none
attr source packetSentToUpper
attr title "packets passed to higher layer, vector(packetBytes)"
vector 261 AODV30_TnT.H17.udp packetReceived:vector(packetBytes) ETV
attr interpolationmode none
attr source packetReceived
attr title "packets received, vector(packetBytes)"
vector 262 AODV30_TnT.H17.udp passedUpPk:vector(count) ETV
attr interpolationmode none
attr source packetSentToUpper
attr title "packets passed up, vector(count)"
vector 263 AODV30_TnT.H13.wlan[0].mac rcvdPkFromLl:vector(packetBytes) ETV
attr interpolationmode none
attr source packetReceivedFromLower
attr title "packets received from lower layer, vector(packetBytes)"
vector 264 AODV30_TnT.H13.wlan[0].mac passedUpPk:vector(packetBytes) ETV
attr interpolationmode none
attr source packetSentToUpper
attr title "packets passed to higher layer, vector(packetBytes)"
vector 265 AODV30_TnT.H13.udp packetReceived:vector(packetBytes) ETV
attr interpolationmode none
attr source packetReceived
attr title "packets received, vector(packetBytes)"
vector 266 AODV30_TnT.H13.udp passedUpPk:vector(count) ETV
attr interpolationmode none
attr source packetSentToUpper
attr title "packets passed up, vector(count)"
vector 267 AODV30_TnT.Bs1.wlan[0].mac rcvdPkFromLl:vector(packetBytes) ETV
attr interpolationmode none
attr source packetReceivedFromLower
attr title "packets received from lower layer, vector(packetBytes)"
vector 268 AODV30_TnT.Bs1.wlan[0].mac passedUpPk:vector(packetBytes) ETV
attr interpolationmode none
attr source packetSentToUpper
attr title "packets passed to higher layer, vector(packetBytes)"
vector 269 AODV30_TnT.Bs1.udp packetReceived:vector(packetBytes) ETV
attr interpolationmode none
attr source packetReceived
attr title "packets received, vector(packetBytes)"
vector 270 AODV30_TnT.Bs1.udp passedUpPk:vector(count) ETV
attr interpolationmode none
attr source packetSentToUpper
attr title "packets passed up, vector(count)"
vector 271 AODV30_TnT.H19.wlan[0].mac rcvdPkFromLl:vector(packetBytes) ETV
attr interpolationmode none
attr source packetReceivedFromLower
attr title "packets received from lower layer, vector(packetBytes)"
vector 272 AODV30_TnT.H19.wlan[0].mac passedUpPk:vector(packetBytes) ETV
attr interpolationmode none
attr source packetSentToUpper
attr title "packets passed to higher layer, vector(packetBytes)"
vector 273 AODV30_TnT.H19.udp packetReceived:vector(packetBytes) ETV
attr interpolationmode none
attr source packetReceived
attr title "packets received, vector(packetBytes)"
vector 274 AODV30_TnT.H19.udp passedUpPk:vector(count) ETV
attr interpolationmode none
attr source packetSentToUpper
attr title "packets passed up, vector(count)"
vector 275 AODV30_TnT.S5.wlan[0].mac rcvdPkFromHl:vector(packetBytes) ETV
attr interpolationmode none
attr source packetReceivedFromUpper
attr title "packets received from higher layer, vector(packetBytes)"
vector 276 AODV30_TnT.S5.wlan[0].mac.queue packetPushed:vector(packetBytes) ETV
attr interpolationmode none
attr title "packet pushed, vector(packetBytes)"
vector 277 AODV30_TnT.S5.wlan[0].mac.queue queueLength:vector ETV
attr interpolationmode sample-hold
attr source "count(packetPushed) - count(packetPopped) - count(packetRemoved) - count(packetDropped)"
attr title "queue length, vector"
vector 278 AODV30_TnT.S5.wlan[0].mac.queue packetPopped:vector(packetBytes) ETV
attr interpolationmode none
attr title "packet popped, vector(packetBytes)"
vector 279 AODV30_TnT.S5.wlan[0].mac.queue queueingTime:vector ETV
attr interpolationmode none
attr source queueingTime(packetPopped)
attr title "queueing times, vector"
attr unit s
vector 280 AODV30_TnT.S5.wlan[0].mac sentDownPk:vector(packetBytes) ETV
attr interpolationmode none
attr source packetSentToLower
attr title "packets sent to lower layer, vector(packetBytes)"
vector 281 AODV30_TnT.H7.wlan[0].mac rcvdPkFromLl:vector(packetBytes) ETV
attr interpolationmode none
attr source packetReceivedFromLower
attr title "packets received from lower layer, vector(packetBytes)"
vector 282 AODV30_TnT.H7.wlan[0].mac passedUpPk:vector(packetBytes) ETV
attr interpolationmode none
attr source packetSentToUpper
attr title "packets passed to higher layer, vector(packetBytes)"
vector 283 AODV30_TnT.H7.udp packetReceived:vector(packetBytes) ETV
attr interpolationmode none
attr source packetReceived
attr title "packets received, vector(packetBytes)"
vector 284 AODV30_TnT.H7.udp passedUpPk:vector(count) ETV
attr interpolationmode none
attr source packetSentToUpper
attr title "packets passed up, vector(count)"
vector 285 AODV30_TnT.H23.udp packetSent:vector(packetBytes) ETV
attr interpolationmode none
attr source packetSent
attr title "packets sent, vector(packetBytes)"
vector 286 AODV30_TnT.H23.wlan[0].mac rcvdPkFromHl:vector(packetBytes) ETV
attr interpolationmode none
attr source packetReceivedFromUpper
attr title "packets received from higher layer, vector(packetBytes)"
vector 287 AODV30_TnT.H23.wlan[0].mac.queue packetPushed:vector(packetBytes) ETV
attr interpolationmode none
attr title "packet pushed, vector(packetBytes)"
vector 288 AODV30_TnT.H23.wlan[0].mac.queue queueLength:vector ETV
attr interpolationmode sample-hold
attr source "count(packetPushed) - count(packetPopped) - count(packetRemoved) - count(packetDropped)"
attr title "queue length, vector"
vector 289 AODV30_TnT.H23.wlan[0].mac.queue packetPopped:vector(packetBytes) ETV
attr interpolationmode none
attr title "packet popped, vector(packetBytes)"
vector 290 AODV30_TnT.H23.wlan[0].mac.queue queueingTime:vector ETV
attr interpolationmode none
attr source queueingTime(packetPopped)
attr title "queueing times, vector"
attr unit s
vector 291 AODV30_TnT.H23.wlan[0].mac sentDownPk:vector(packetBytes) ETV
attr interpolationmode none
attr source packetSentToLower
attr title "packets sent to lower layer, vector(packetBytes)"
vector 292 AODV30_TnT.H10.udp packetSent:vector(packetBytes) ETV
attr interpolationmode none
attr source packetSent
attr title "packets sent, vector(packetBytes)"
vector 293 AODV30_TnT.H10.wlan[0].mac rcvdPkFromHl:vector(packetBytes) ETV
attr interpolationmode none
attr source packetReceivedFromUpper
attr title "packets received from higher layer, vector(packetBytes)"
vector 294 AODV30_TnT.H10.wlan[0].mac.queue packetPushed:vector(packetBytes) ETV
attr interpolationmode none
attr title "packet pushed, vector(packetBytes)"
vector 295 AODV30_TnT.H10.wlan[0].mac.queue queueLength:vector ETV
attr interpolationmode sample-hold
attr source "count(packetPushed) - count(packetPopped) - count(packetRemoved) - count(packetDropped)"
attr title "queue length, vector"
vector 296 AODV30_TnT.H10.wlan[0].mac.queue packetPopped:vector(packetBytes) ETV
attr interpolationmode none
attr title "packet popped, vector(packetBytes)"
vector 297 AODV30_TnT.H10.wlan[0].mac.queue queueingTime:vector ETV
attr interpolationmode none
attr source queueingTime(packetPopped)
attr title "queueing times, vector"
attr unit s
vector 298 AODV30_TnT.H10.wlan[0].mac sentDownPk:vector(packetBytes) ETV
attr interpolationmode none
attr source packetSentToLower
attr title "packets sent to lower layer, vector(packetBytes)"
vector 299 AODV30_TnT.H18.wlan[0].mac rcvdPkFromLl:vector(packetBytes) ETV
attr interpolationmode none
attr source packetReceivedFromLower
attr title "packets received from lower layer, vector(packetBytes)"
vector 300 AODV30_TnT.H18.wlan[0].mac passedUpPk:vector(packetBytes) ETV
attr interpolationmode none
attr source packetSentToUpper
attr title "packets passed to higher layer, vector(packetBytes)"
vector 301 AODV30_TnT.H18.udp packetReceived:vector(packetBytes) ETV
attr interpolationmode none
attr source packetReceived
attr title "packets received, vector(packetBytes)"
vector 302 AODV30_TnT.H18.udp passedUpPk:vector(count) ETV
attr interpolationmode none
attr source packetSentToUpper
attr title "packets passed up, vector(count)"
vector 303 AODV30_TnT.H2.wlan[0].mac rcvdPkFromLl:vector(packetBytes) ETV
attr interpolationmode none
attr source packetReceivedFromLower
attr title "packets received from lower layer, vector(packetBytes)"
vector 304 AODV30_TnT.H2.wlan[0].mac passedUpPk:vector(packetBytes) ETV
attr interpolationmode none
attr source packetSentToUpper
attr title "packets passed to higher layer, vector(packetBytes)"
vector 305 AODV30_TnT.H2.udp packetReceived:vector(packetBytes) ETV
attr interpolationmode none
attr source packetReceived
attr title "packets received, vector(packetBytes)"
vector 306 AODV30_TnT.H2.udp passedUpPk:vector(count) ETV
attr interpolationmode none
attr source packetSentToUpper
attr title "packets passed up, vector(count)"
vector 307 AODV30_TnT.H24.wlan[0].mac rcvdPkFromLl:vector(packetBytes) ETV
attr interpolationmode none
attr source packetReceivedFromLower
attr title "packets received from lower layer, vector(packetBytes)"
vector 308 AODV30_TnT.H24.wlan[0].mac passedUpPk:vector(packetBytes) ETV
attr interpolationmode none
attr source packetSentToUpper
attr title "packets passed to higher layer, vector(packetBytes)"
vector 309 AODV30_TnT.H24.udp packetReceived:vector(packetBytes) ETV
attr interpolationmode none
attr source packetReceived
attr title "packets received, vector(packetBytes)"
vector 310 AODV30_TnT.H24.udp passedUpPk:vector(count) ETV
attr interpolationmode none
attr source packetSentToUpper
attr title "packets passed up, vector(count)"
vector 311 AODV30_TnT.Bs1.udp packetSent:vector(packetBytes) ETV
attr interpolationmode none
attr source packetSent
attr title "packets sent, vector(packetBytes)"
vector 312 AODV30_TnT.Bs1.ipv4.arp arpRequestSent:vector(packetBytes) ETV
attr source arpRequestSent
attr title "ARP request sent, vector(packetBytes)"
vector 313 AODV30_TnT.Bs1.wlan[0].mac rcvdPkFromHl:vector(packetBytes) ETV
attr interpolationmode none
attr source packetReceivedFromUpper
attr title "packets received from higher layer, vector(packetBytes)"
vector 314 AODV30_TnT.Bs1.wlan[0].mac.queue packetPushed:vector(packetBytes) ETV
attr interpolationmode none
attr title "packet pushed, vector(packetBytes)"
vector 315 AODV30_TnT.Bs1.wlan[0].mac.queue queueLength:vector ETV
attr interpolationmode sample-hold
attr source "count(packetPushed) - count(packetPopped) - count(packetRemoved) - count(packetDropped)"
attr title "queue length, vector"
vector 316 AODV30_TnT.Bs1.wlan[0].mac.queue packetPopped:vector(packetBytes) ETV
attr interpolationmode none
attr title "packet popped, vector(packetBytes)"
vector 317 AODV30_TnT.Bs1.wlan[0].mac.queue queueingTime:vector ETV
attr interpolationmode none
attr source queueingTime(packetPopped)
attr title "queueing times, vector"
attr unit s
vector 318 AODV30_TnT.Bs1.wlan[0].mac sentDownPk:vector(packetBytes) ETV
attr interpolationmode none
attr source packetSentToLower
attr title "packets sent to lower layer, vector(packetBytes)"
vector 319 AODV30_TnT.H27.udp packetSent:vector(packetBytes) ETV
attr interpolationmode none
attr source packetSent
attr title "packets sent, vector(packetBytes)"
vector 320 AODV30_TnT.H27.wlan[0].mac rcvdPkFromHl:vector(packetBytes) ETV
attr interpolationmode none
attr source packetReceivedFromUpper
attr title "packets received from higher layer, vector(packetBytes)"
vector 321 AODV30_TnT.H27.wlan[0].mac.queue packetPushed:vector(packetBytes) ETV
attr interpolationmode none
attr title "packet pushed, vector(packetBytes)"
vector 322 AODV30_TnT.H27.wlan[0].mac.queue queueLength:vector ETV
attr interpolationmode sample-hold
attr source "count(packetPushed) - count(packetPopped) - count(packetRemoved) - count(packetDropped)"
attr title "queue length, vector"
vector 323 AODV30_TnT.H27.wlan[0].mac.queue packetPopped:vector(packetBytes) ETV
attr interpolationmode none
attr title "packet popped, vector(packetBytes)"
vector 324 AODV30_TnT.H27.wlan[0].mac.queue queueingTime:vector ETV
attr interpolationmode none
attr source queueingTime(packetPopped)
attr title "queueing times, vector"
attr unit s
vector 325 AODV30_TnT.H27.wlan[0].mac sentDownPk:vector(packetBytes) ETV
attr interpolationmode none
attr source packetSentToLower
attr title "packets sent to lower layer, vector(packetBytes)"
vector 326 AODV30_TnT.H19.udp packetSent:vector(packetBytes) ETV
attr interpolationmode none
attr source packetSent
attr title "packets sent, vector(packetBytes)"
vector 327 AODV30_TnT.H19.wlan[0].mac rcvdPkFromHl:vector(packetBytes) ETV
attr interpolationmode none
attr source packetReceivedFromUpper
attr title "packets received from higher layer, vector(packetBytes)"
vector 328 AODV30_TnT.H19.wlan[0].mac.queue packetPushed:vector(packetBytes) ETV
attr interpolationmode none
attr title "packet pushed, vector(packetBytes)"
vector 329 AODV30_TnT.H19.wlan[0].mac.queue queueLength:vector ETV
attr interpolationmode sample-hold
attr source "count(packetPushed) - count(packetPopped) - count(packetRemoved) - count(packetDropped)"
attr title "queue length, vector"
vector 330 AODV30_TnT.H19.wlan[0].mac.queue packetPopped:vector(packetBytes) ETV
attr interpolationmode none
attr title "packet popped, vector(packetBytes)"
vector 331 AODV30_TnT.H19.wlan[0].mac.queue queueingTime:vector ETV
attr interpolationmode none
attr source queueingTime(packetPopped)
attr title "queueing times, vector"
attr unit s
vector 332 AODV30_TnT.H19.wlan[0].mac sentDownPk:vector(packetBytes) ETV
attr interpolationmode none
attr source packetSentToLower
attr title "packets sent to lower layer, vector(packetBytes)"
vector 333 AODV30_TnT.H5.wlan[0].mac rcvdPkFromLl:vector(packetBytes) ETV
attr interpolationmode none
attr source packetReceivedFromLower
attr title "packets received from lower layer, vector(packetBytes)"
vector 334 AODV30_TnT.H5.wlan[0].mac passedUpPk:vector(packetBytes) ETV
attr interpolationmode none
attr source packetSentToUpper
attr title "packets passed to higher layer, vector(packetBytes)"
vector 335 AODV30_TnT.H22.wlan[0].mac rcvdPkFromLl:vector(packetBytes) ETV
attr interpolationmode none
attr source packetReceivedFromLower
attr title "packets received from lower layer, vector(packetBytes)"
vector 336 AODV30_TnT.H22.wlan[0].mac passedUpPk:vector(packetBytes) ETV
attr interpolationmode none
attr source packetSentToUpper
attr title "packets passed to higher layer, vector(packetBytes)"
vector 337 AODV30_TnT.S5.wlan[0].mac rcvdPkFromLl:vector(packetBytes) ETV
attr interpolationmode none
attr source packetReceivedFromLower
attr title "packets received from lower layer, vector(packetBytes)"
vector 338 AODV30_TnT.S5.wlan[0].mac passedUpPk:vector(packetBytes) ETV
attr interpolationmode none
attr source packetSentToUpper
attr title "packets passed to higher layer, vector(packetBytes)"
vector 339 AODV30_TnT.S5.ipv4.arp arpReplySent:vector(packetBytes) ETV
attr source arpReplySent
attr title "ARP replies sent, vector(packetBytes)"
vector 340 AODV30_TnT.H24.udp packetSent:vector(packetBytes) ETV
attr interpolationmode none
attr source packetSent
attr title "packets sent, vector(packetBytes)"
vector 341 AODV30_TnT.H24.wlan[0].mac rcvdPkFromHl:vector(packetBytes) ETV
attr interpolationmode none
attr source packetReceivedFromUpper
attr title "packets received from higher layer, vector(packetBytes)"
vector 342 AODV30_TnT.H24.wlan[0].mac.queue packetPushed:vector(packetBytes) ETV
attr interpolationmode none
attr title "packet pushed, vector(packetBytes)"
vector 343 AODV30_TnT.H24.wlan[0].mac.queue queueLength:vector ETV
attr interpolationmode sample-hold
attr source "count(packetPushed) - count(packetPopped) - count(packetRemoved) - count(packetDropped)"
attr title "queue length, vector"
vector 344 AODV30_TnT.H24.wlan[0].mac.queue packetPopped:vector(packetBytes) ETV
attr interpolationmode none
attr title "packet popped, vector(packetBytes)"
vector 345 AODV30_TnT.H24.wlan[0].mac.queue queueingTime:vector ETV
attr interpolationmode none
attr source queueingTime(packetPopped)
attr title "queueing times, vector"
attr unit s
vector 346 AODV30_TnT.H24.wlan[0].mac sentDownPk:vector(packetBytes) ETV
attr interpolationmode none
attr source packetSentToLower
attr title "packets sent to lower layer, vector(packetBytes)"
vector 347 AODV30_TnT.H26.wlan[0].mac rcvdPkFromLl:vector(packetBytes) ETV
attr interpolationmode none
attr source packetReceivedFromLower
attr title "packets received from lower layer, vector(packetBytes)"
vector 348 AODV30_TnT.H26.wlan[0].mac passedUpPk:vector(packetBytes) ETV
attr interpolationmode none
attr source packetSentToUpper
attr title "packets passed to higher layer, vector(packetBytes)"
vector 349 AODV30_TnT.H26.udp packetReceived:vector(packetBytes) ETV
attr interpolationmode none
attr source packetReceived
attr title "packets received, vector(packetBytes)"
vector 350 AODV30_TnT.H26.udp passedUpPk:vector(count) ETV
attr interpolationmode none
attr source packetSentToUpper
attr title "packets passed up, vector(count)"
vector 351 AODV30_TnT.H4.wlan[0].mac rcvdPkFromLl:vector(packetBytes) ETV
attr interpolationmode none
attr source packetReceivedFromLower
attr title "packets received from lower layer, vector(packetBytes)"
vector 352 AODV30_TnT.H4.wlan[0].mac passedUpPk:vector(packetBytes) ETV
attr interpolationmode none
attr source packetSentToUpper
attr title "packets passed to higher layer, vector(packetBytes)"
vector 353 AODV30_TnT.H4.udp packetReceived:vector(packetBytes) ETV
attr interpolationmode none
attr source packetReceived
attr title "packets received, vector(packetBytes)"
vector 354 AODV30_TnT.H4.udp passedUpPk:vector(count) ETV
attr interpolationmode none
attr source packetSentToUpper
attr title "packets passed up, vector(count)"
vector 355 AODV30_TnT.H18.wlan[0].mac packetDropNotAddressedToUs:vector(packetBytes) ETV
attr interpolationmode none
attr source packetDropReasonIsNotAddressedToUs(packetDropped)
attr title "packet drop: not addressed to us, vector(packetBytes)"
vector 356 AODV30_TnT.H1.wlan[0].mac packetDropNotAddressedToUs:vector(packetBytes) ETV
attr interpolationmode none
attr source packetDropReasonIsNotAddressedToUs(packetDropped)
attr title "packet drop: not addressed to us, vector(packetBytes)"
vector 357 AODV30_TnT.H2.wlan[0].mac packetDropNotAddressedToUs:vector(packetBytes) ETV
attr interpolationmode none
attr source packetDropReasonIsNotAddressedToUs(packetDropped)
attr title "packet drop: not addressed to us, vector(packetBytes)"
vector 358 AODV30_TnT.H24.wlan[0].mac packetDropNotAddressedToUs:vector(packetBytes) ETV
attr interpolationmode none
attr source packetDropReasonIsNotAddressedToUs(packetDropped)
attr title "packet drop: not addressed to us, vector(packetBytes)"
vector 359 AODV30_TnT.H3.wlan[0].mac packetDropNotAddressedToUs:vector(packetBytes) ETV
attr interpolationmode none
attr source packetDropReasonIsNotAddressedToUs(packetDropped)
attr title "packet drop: not addressed to us, vector(packetBytes)"
vector 360 AODV30_TnT.S5.udp packetReceived:vector(packetBytes) ETV
attr interpolationmode none
attr source packetReceived
attr title "packets received, vector(packetBytes)"
vector 361 AODV30_TnT.S5.udp passedUpPk:vector(count) ETV
attr interpolationmode none
attr source packetSentToUpper
attr title "packets passed up, vector(count)"
vector 362 AODV30_TnT.H5.udp packetReceived:vector(packetBytes) ETV
attr interpolationmode none
attr source packetReceived
attr title "packets received, vector(packetBytes)"
vector 363 AODV30_TnT.H5.udp passedUpPk:vector(count) ETV
attr interpolationmode none
attr source packetSentToUpper
attr title "packets passed up, vector(count)"
vector 364 AODV30_TnT.H29.udp packetSent:vector(packetBytes) ETV
attr interpolationmode none
attr source packetSent
attr title "packets sent, vector(packetBytes)"
vector 365 AODV30_TnT.H29.wlan[0].mac rcvdPkFromHl:vector(packetBytes) ETV
attr interpolationmode none
attr source packetReceivedFromUpper
attr title "packets received from higher layer, vector(packetBytes)"
vector 366 AODV30_TnT.H29.wlan[0].mac.queue packetPushed:vector(packetBytes) ETV
attr interpolationmode none
attr title "packet pushed, vector(packetBytes)"
vector 367 AODV30_TnT.H29.wlan[0].mac.queue queueLength:vector ETV
attr interpolationmode sample-hold
attr source "count(packetPushed) - count(packetPopped) - count(packetRemoved) - count(packetDropped)"
attr title "queue length, vector"
vector 368 AODV30_TnT.H29.wlan[0].mac.queue packetPopped:vector(packetBytes) ETV
attr interpolationmode none
attr title "packet popped, vector(packetBytes)"
vector 369 AODV30_TnT.H29.wlan[0].mac.queue queueingTime:vector ETV
attr interpolationmode none
attr source queueingTime(packetPopped)
attr title "queueing times, vector"
attr unit s
vector 370 AODV30_TnT.H29.wlan[0].mac sentDownPk:vector(packetBytes) ETV
attr interpolationmode none
attr source packetSentToLower
attr title "packets sent to lower layer, vector(packetBytes)"
vector 371 AODV30_TnT.H16.wlan[0].mac packetDropNotAddressedToUs:vector(packetBytes) ETV
attr interpolationmode none
attr source packetDropReasonIsNotAddressedToUs(packetDropped)
attr title "packet drop: not addressed to us, vector(packetBytes)"
vector 372 AODV30_TnT.H22.wlan[0].mac packetDropNotAddressedToUs:vector(packetBytes) ETV
attr interpolationmode none
attr source packetDropReasonIsNotAddressedToUs(packetDropped)
attr title "packet drop: not addressed to us, vector(packetBytes)"
vector 373 AODV30_TnT.H6.udp packetSent:vector(packetBytes) ETV
attr interpolationmode none
attr source packetSent
attr title "packets sent, vector(packetBytes)"
vector 374 AODV30_TnT.H6.wlan[0].mac rcvdPkFromHl:vector(packetBytes) ETV
attr interpolationmode none
attr source packetReceivedFromUpper
attr title "packets received from higher layer, vector(packetBytes)"
vector 375 AODV30_TnT.H6.wlan[0].mac.queue packetPushed:vector(packetBytes) ETV
attr interpolationmode none
attr title "packet pushed, vector(packetBytes)"
vector 376 AODV30_TnT.H6.wlan[0].mac.queue queueLength:vector ETV
attr interpolationmode sample-hold
attr source "count(packetPushed) - count(packetPopped) - count(packetRemoved) - count(packetDropped)"
attr title "queue length, vector"
vector 377 AODV30_TnT.H6.wlan[0].mac.queue packetPopped:vector(packetBytes) ETV
attr interpolationmode none
attr title "packet popped, vector(packetBytes)"
vector 378 AODV30_TnT.H6.wlan[0].mac.queue queueingTime:vector ETV
attr interpolationmode none
attr source queueingTime(packetPopped)
attr title "queueing times, vector"
attr unit s
vector 379 AODV30_TnT.H6.wlan[0].mac sentDownPk:vector(packetBytes) ETV
attr interpolationmode none
attr source packetSentToLower
attr title "packets sent to lower layer, vector(packetBytes)"
vector 380 AODV30_TnT.H3.udp packetSent:vector(packetBytes) ETV
attr interpolationmode none
attr source packetSent
attr title "packets sent, vector(packetBytes)"
vector 381 AODV30_TnT.H3.wlan[0].mac rcvdPkFromHl:vector(packetBytes) ETV
attr interpolationmode none
attr source packetReceivedFromUpper
attr title "packets received from higher layer, vector(packetBytes)"
vector 382 AODV30_TnT.H3.wlan[0].mac.queue packetPushed:vector(packetBytes) ETV
attr interpolationmode none
attr title "packet pushed, vector(packetBytes)"
vector 383 AODV30_TnT.H3.wlan[0].mac.queue queueLength:vector ETV
attr interpolationmode sample-hold
attr source "count(packetPushed) - count(packetPopped) - count(packetRemoved) - count(packetDropped)"
attr title "queue length, vector"
vector 384 AODV30_TnT.H3.wlan[0].mac.queue packetPopped:vector(packetBytes) ETV
attr interpolationmode none
attr title "packet popped, vector(packetBytes)"
vector 385 AODV30_TnT.H3.wlan[0].mac.queue queueingTime:vector ETV
attr interpolationmode none
attr source queueingTime(packetPopped)
attr title "queueing times, vector"
attr unit s
vector 386 AODV30_TnT.H3.wlan[0].mac sentDownPk:vector(packetBytes) ETV
attr interpolationmode none
attr source packetSentToLower
attr title "packets sent to lower layer, vector(packetBytes)"
vector 387 AODV30_TnT.S1.wlan[0].mac rcvdPkFromLl:vector(packetBytes) ETV
attr interpolationmode none
attr source packetReceivedFromLower
attr title "packets received from lower layer, vector(packetBytes)"
vector 388 AODV30_TnT.S1.wlan[0].mac passedUpPk:vector(packetBytes) ETV
attr interpolationmode none
attr source packetSentToUpper
attr title "packets passed to higher layer, vector(packetBytes)"
vector 389 AODV30_TnT.S1.udp packetReceived:vector(packetBytes) ETV
attr interpolationmode none
attr source packetReceived
attr title "packets received, vector(packetBytes)"
vector 390 AODV30_TnT.S1.udp passedUpPk:vector(count) ETV
attr interpolationmode none
attr source packetSentToUpper
attr title "packets passed up, vector(count)"
vector 391 AODV30_TnT.H22.udp packetReceived:vector(packetBytes) ETV
attr interpolationmode none
attr source packetReceived
attr title "packets received, vector(packetBytes)"
vector 392 AODV30_TnT.H22.udp passedUpPk:vector(count) ETV
attr interpolationmode none
attr source packetSentToUpper
attr title "packets passed up, vector(count)"
vector 393 AODV30_TnT.H8.udp packetSent:vector(packetBytes) ETV
attr interpolationmode none
attr source packetSent
attr title "packets sent, vector(packetBytes)"
vector 394 AODV30_TnT.H8.wlan[0].mac rcvdPkFromHl:vector(packetBytes) ETV
attr interpolationmode none
attr source packetReceivedFromUpper
attr title "packets received from higher layer, vector(packetBytes)"
vector 395 AODV30_TnT.H8.wlan[0].mac.queue packetPushed:vector(packetBytes) ETV
attr interpolationmode none
attr title "packet pushed, vector(packetBytes)"
vector 396 AODV30_TnT.H8.wlan[0].mac.queue queueLength:vector ETV
attr interpolationmode sample-hold
attr source "count(packetPushed) - count(packetPopped) - count(packetRemoved) - count(packetDropped)"
attr title "queue length, vector"
vector 397 AODV30_TnT.H8.wlan[0].mac.queue packetPopped:vector(packetBytes) ETV
attr interpolationmode none
attr title "packet popped, vector(packetBytes)"
vector 398 AODV30_TnT.H8.wlan[0].mac.queue queueingTime:vector ETV
attr interpolationmode none
attr source queueingTime(packetPopped)
attr title "queueing times, vector"
attr unit s
vector 399 AODV30_TnT.H8.wlan[0].mac sentDownPk:vector(packetBytes) ETV
attr interpolationmode none
attr source packetSentToLower
attr title "packets sent to lower layer, vector(packetBytes)"
vector 400 AODV30_TnT.H18.udp packetSent:vector(packetBytes) ETV
attr interpolationmode none
attr source packetSent
attr title "packets sent, vector(packetBytes)"
vector 401 AODV30_TnT.H18.wlan[0].mac rcvdPkFromHl:vector(packetBytes) ETV
attr interpolationmode none
attr source packetReceivedFromUpper
attr title "packets received from higher layer, vector(packetBytes)"
vector 402 AODV30_TnT.H18.wlan[0].mac.queue packetPushed:vector(packetBytes) ETV
attr interpolationmode none
attr title "packet pushed, vector(packetBytes)"
vector 403 AODV30_TnT.H18.wlan[0].mac.queue queueLength:vector ETV
attr interpolationmode sample-hold
attr source "count(packetPushed) - count(packetPopped) - count(packetRemoved) - count(packetDropped)"
attr title "queue length, vector"
vector 404 AODV30_TnT.H18.wlan[0].mac.queue packetPopped:vector(packetBytes) ETV
attr interpolationmode none
attr title "packet popped, vector(packetBytes)"
vector 405 AODV30_TnT.H18.wlan[0].mac.queue queueingTime:vector ETV
attr interpolationmode none
attr source queueingTime(packetPopped)
attr title "queueing times, vector"
attr unit s
vector 406 AODV30_TnT.H18.wlan[0].mac sentDownPk:vector(packetBytes) ETV
attr interpolationmode none
attr source packetSentToLower
attr title "packets sent to lower layer, vector(packetBytes)"
vector 407 AODV30_TnT.H12.ipv4.arp arpRequestSent:vector(packetBytes) ETV
attr source arpRequestSent
attr title "ARP request sent, vector(packetBytes)"
vector 408 AODV30_TnT.H30.udp packetSent:vector(packetBytes) ETV
attr interpolationmode none
attr source packetSent
attr title "packets sent, vector(packetBytes)"
vector 409 AODV30_TnT.H30.wlan[0].mac rcvdPkFromHl:vector(packetBytes) ETV
attr interpolationmode none
attr source packetReceivedFromUpper
attr title "packets received from higher layer, vector(packetBytes)"
vector 410 AODV30_TnT.H30.wlan[0].mac.queue packetPushed:vector(packetBytes) ETV
attr interpolationmode none
attr title "packet pushed, vector(packetBytes)"
vector 411 AODV30_TnT.H30.wlan[0].mac.queue queueLength:vector ETV
attr interpolationmode sample-hold
attr source "count(packetPushed) - count(packetPopped) - count(packetRemoved) - count(packetDropped)"
attr title "queue length, vector"
vector 412 AODV30_TnT.H30.wlan[0].mac.queue packetPopped:vector(packetBytes) ETV
attr interpolationmode none
attr title "packet popped, vector(packetBytes)"
vector 413 AODV30_TnT.H30.wlan[0].mac.queue queueingTime:vector ETV
attr interpolationmode none
attr source queueingTime(packetPopped)
attr title "queueing times, vector"
attr unit s
vector 414 AODV30_TnT.H30.wlan[0].mac sentDownPk:vector(packetBytes) ETV
attr interpolationmode none
attr source packetSentToLower
attr title "packets sent to lower layer, vector(packetBytes)"
vector 415 AODV30_TnT.S3.ipv4.arp arpReplySent:vector(packetBytes) ETV
attr source arpReplySent
attr title "ARP replies sent, vector(packetBytes)"
vector 416 AODV30_TnT.H1.udp packetSent:vector(packetBytes) ETV
attr interpolationmode none
attr source packetSent
attr title "packets sent, vector(packetBytes)"
vector 417 AODV30_TnT.H1.wlan[0].mac rcvdPkFromHl:vector(packetBytes) ETV
attr interpolationmode none
attr source packetReceivedFromUpper
attr title "packets received from higher layer, vector(packetBytes)"
vector 418 AODV30_TnT.H1.wlan[0].mac.queue packetPushed:vector(packetBytes) ETV
attr interpolationmode none
attr title "packet pushed, vector(packetBytes)"
vector 419 AODV30_TnT.H1.wlan[0].mac.queue queueLength:vector ETV
attr interpolationmode sample-hold
attr source "count(packetPushed) - count(packetPopped) - count(packetRemoved) - count(packetDropped)"
attr title "queue length, vector"
vector 420 AODV30_TnT.H1.wlan[0].mac.queue packetPopped:vector(packetBytes) ETV
attr interpolationmode none
attr title "packet popped, vector(packetBytes)"
vector 421 AODV30_TnT.H1.wlan[0].mac.queue queueingTime:vector ETV
attr interpolationmode none
attr source queueingTime(packetPopped)
attr title "queueing times, vector"
attr unit s
vector 422 AODV30_TnT.H1.wlan[0].mac sentDownPk:vector(packetBytes) ETV
attr interpolationmode none
attr source packetSentToLower
attr title "packets sent to lower layer, vector(packetBytes)"
[...]
365	633709 218 1984 48023 0.005461343079 2.576553157148 8 52 52 416 21632
366	633927 218 1984 48023 0.005461343079 2.576553157148 8 52 52 416 21632
367	634145 420 1984 48023 0.005461343079 2.576553157148 16 0 1 8 8
368	634565 218 1984 48023 0.005461343079 2.576553157148 8 52 52 416 21632
369	634783 210 1984 48023 0.005461343079 2.576553157148 8 0 0 0 0
370	634993 218 1984 48023 0.005461343079 2.576553157148 8 75 75 600 45000
371	635211 1665 2036 50324 0.005476996832 2.752300694332 59 51 563 18177 9309171
372	636876 1041 2038 48125 0.005477012434 2.576801129094 37 51 563 8843 4219621
373	637917 246 2066 44183 0.00569607312 2.35545555833 9 28 32 280 8736
374	638163 476 2068 44185 0.00569607312 2.35545555833 17 28 540 3756 1774704
375	638639 476 2068 44185 0.00569607312 2.35545555833 17 28 540 3756 1774704
376	639115 906 2068 44185 0.00569607312 2.35545555833 34 0 1 17 17
377	640021 476 2068 44185 0.00569607312 2.35545555833 17 28 540 3756 1774704
378	640497 463 2068 44185 0.00569607312 2.35545555833 17 0 4.99889e-07 4.99889e-07 2.49889012321e-13
379	640960 476 2068 44185 0.00569607312 2.35545555833 17 51 563 4147 1956473
380	641436 274 2107 49769 0.005717655647 2.676985403328 10 28 36 316 10032
381	641710 499 2109 49771 0.005717655647 2.676985403328 18 28 540 1784 616096
382	642209 499 2109 49771 0.005717655647 2.676985403328 18 28 540 1784 616096
383	642708 958 2109 49782 0.005717655647 2.678473526713 36 0 1 18 18
384	643666 499 2109 49782 0.005717655647 2.678473526713 18 28 540 1784 616096
385	644165 505 2109 49782 0.005717655647 2.678473526713 18 0 0.097699234783 0.099187358168 0.0095473549883927
386	644670 499 2109 49782 0.005717655647 2.678473526713 18 51 563 2198 707682
387	645169 1447 2159 49922 0.005809944713 2.678838291933 52 51 563 7956 3051812
388	646616 1020 2159 49922 0.005809944713 2.678838291933 37 28 56 1692 81200
389	647636 771 2161 49924 0.005809944713 2.678838291933 28 28 36 880 27744
390	648407 762 2161 49924 0.005809944713 2.678838291933 28 1 28 406 7714
391	649169 1472 2295 50036 0.006044901554 2.679374706343 53 28 36 1672 52896
392	650641 1463 2295 50036 0.006044901554 2.679374706343 53 1 53 1431 51039
393	652104 248 2473 49288 0.006492293874 2.606973682093 9 28 32 280 8736
394	652352 361 2475 49290 0.006492293874 2.606973682093 13 28 540 1084 317488
395	652713 361 2475 49290 0.006492293874 2.606973682093 13 28 540 1084 317488
396	653074 694 2475 49290 0.006492293874 2.606973682093 26 0 1 13 13
397	653768 361 2475 49290 0.006492293874 2.606973682093 13 28 540 1084 317488
398	654129 347 2475 49290 0.006492293874 2.606973682093 13 0 0 0 0
399	654476 361 2475 49290 0.006492293874 2.606973682093 13 51 563 1383 374229
400	654837 221 2514 47669 0.006601915864 2.576123246833 8 32 32 256 8192
401	655058 305 2516 47671 0.006601915864 2.576123246833 11 28 52 500 23984
402	655363 305 2516 47671 0.006601915864 2.576123246833 11 28 52 500 23984
403	655668 588 2516 47671 0.006601915864 2.576123246833 22 0 1 11 11
404	656256 305 2516 47671 0.006601915864 2.576123246833 11 28 52 500 23984
405	656561 294 2516 47671 0.006601915864 2.576123246833 11 0 0 0 0
406	656855 305 2516 47671 0.006601915864 2.576123246833 11 51 75 753 52803
407	657160 138 2637 41001 0.006776546196 2.006776546196 5 28 28 140 3920
408	657298 246 2730 48399 0.006925767767 2.578815127508 9 32 32 288 9216
409	657544 246 2732 48401 0.006925767767 2.578815127508 9 52 52 468 24336
410	657790 246 2732 48401 0.006925767767 2.578815127508 9 52 52 468 24336
411	658036 474 2732 48401 0.006925767767 2.578815127508 18 0 1 9 9
412	658510 246 2732 48401 0.006925767767 2.578815127508 9 52 52 468 24336
413	658756 237 2732 48401 0.006925767767 2.578815127508 9 0 0 0 0
414	658993 246 2732 48401 0.006925767767 2.578815127508 9 75 75 675 50625
415	659239 139 2826 41135 0.007029190386 2.007029190321 5 28 28 140 3920
416	659378 247 2950 47364 0.007133991019 2.57527347501 9 28 32 276 8496
417	659625 589 2952 47366 0.007133991019 2.57527347501 21 28 540 3864 1777440
418	660214 589 2952 47366 0.007133991019 2.57527347501 21 28 540 3864 1777440
419	660803 1123 2952 47366 0.007133991019 2.57527347501 42 0 5 41 101
420	661926 588 2952 47366 0.007133991019 2.57527347501 21 28 540 3864 1777440
421	662514 626 2952 47366 0.007133991019 2.57527347501 21 0 0.011503186945 0.034509560835 0.00029111128176156
422	663140 588 2952 47366 0.007133991019 2.57527347501 21 51 563 4347 1966293
423	663728 1315 3067 50299 0.007281657424 2.752300467171 46 51 563 19322 10503550
424	665043 1387 3071 50316 0.007281813722 2.752300623308 49 51 563 17015 8951713
425	666430 166 3107 33243 0.007285272231 1.557788779545 6 32 32 192 6144
426	666596 166 3109 33245 0.007285272231 1.557788779545 6 52 52 312 16224
427	666762 166 3109 33245 0.007285272231 1.557788779545 6 52 52 312 16224
428	666928 320 3109 33245 0.007285272231 1.557788779545 12 0 1 6 6
429	667248 166 3109 33245 0.007285272231 1.557788779545 6 52 52 312 16224
430	667414 160 3109 33245 0.007285272231 1.557788779545 6 0 0 0 0
431	667574 166 3109 33245 0.007285272231 1.557788779545 6 75 75 450 33750
432	667740 444 3292 33379 0.00763396611 1.55813747337 16 28 44 520 17056
433	668184 435 3292 33379 0.00763396611 1.55813747337 16 1 16 136 1496
434	668619 277 3489 47420 0.008818590373 2.575622038533 10 28 32 312 9760
435	668896 420 3491 50303 0.008818590373 2.752300468484 15 28 540 2168 901088
436	669316 420 3491 50303 0.008818590373 2.752300468484 15 28 540 2168 901088
437	669736 804 3491 50303 0.008818590373 2.752300468484 30 0 1 15 15
438	670540 420 3491 50303 0.008818590373 2.752300468484 15 28 540 2168 901088
439	670960 402 3491 50303 0.008818590373 2.752300468484 15 0 0 0 0
440	671362 420 3491 50303 0.008818590373 2.752300468484 15 51 563 2513 1008751
441	671782 248 3717 49437 0.009436959207 2.60730616603 9 28 36 284 9008
442	672030 332 3719 49439 0.009436959207 2.60730616603 12 28 56 548 26320
443	672362 332 3719 49439 0.009436959207 2.60730616603 12 28 56 548 26320
444	672694 640 3719 49439 0.009436959207 2.60730616603 24 0 1 12 12
445	673334 332 3719 49439 0.009436959207 2.60730616603 12 28 56 548 26320
446	673666 320 3719 49439 0.009436959207 2.60730616603 12 0 0 0 0
447	673986 332 3719 49439 0.009436959207 2.60730616603 12 51 79 824 57876
448	674318 83 4004 39874 0.105396818104 1.810207469993 3 28 28 84 2352
449	674401 55 4138 37920 0.105648848523 1.759176591555 2 28 28 56 1568
450	674456 1444 4173 50076 0.105649343445 2.680774049174 51 51 563 17669 9276163
451	675900 427 4192 49790 0.105649583258 2.678473703891 15 51 563 5413 2873207
452	676327 1349 4307 49774 0.105901274862 2.678473335105 48 51 563 13500 6763176
453	677676 1412 4314 50085 0.105901436862 2.680774248559 50 51 563 14154 7087626
454	679088 1038 4360 50327 0.105982062759 2.752300768267 37 51 563 7799 3588445
455	680126 506 4362 48119 0.105982105043 2.576801007475 18 51 563 4150 1952546
456	680632 642 4370 49792 0.105982252852 2.678473742345 23 51 563 5409 2591847
457	681274 82 4887 11664 0.210664499016 0.330909217615 3 28 28 84 2352
458	681356 27 4935 4935 0.210916960308 0.210916960308 1 28 28 28 784
459	681383 679 5030 50088 0.211169464827 2.680774324281 24 51 563 7980 4161408
460	682062 399 5037 45451 0.211169573412 2.502300613276 14 51 563 6878 3811270
461	682461 981 5126 50332 0.211502059139 2.75230082765 35 51 563 7145 3263995
462	683442 604 5297 45821 0.216102981723 2.504600827812 21 512 512 10752 5505024
463	684046 436 5297 45821 0.1 2.5 25 0 204800 819200 90596966400
464	684482 832 5297 45821 0.216102981723 2.504600827812 21 0.00230082764 1.432790837298 4.261321539828 4.208206751192
465	685314 563 5297 45821 0.216102981723 2.504600827812 21 0 10 99 655
466	685877 83 5731 46756 0.321192895103 2.561343028273 3 28 28 84 2352
467	685960 139 5880 33675 0.321656748952 1.561090417967 5 28 32 156 4880
468	686099 223 5882 46843 0.321656748952 2.561595638579 8 28 52 340 15472
469	686322 223 5882 46843 0.321656748952 2.561595638579 8 28 52 340 15472
470	686545 430 5882 46843 0.321656748952 2.561595638579 16 0 1 8 8
471	686975 223 5882 46843 0.321656748952 2.561595638579 8 28 52 340 15472
472	687198 215 5882 46843 0.321656748952 2.561595638579 8 0 0 0 0
473	687413 223 5882 46843 0.321656748952 2.561595638579 8 51 75 524 35344
474	687636 535 5928 46923 0.32177811668 2.561928317244 19 51 563 4261 1962467
475	688171 251 6446 48195 0.323923505922 2.578230081137 9 28 32 280 8736
476	688422 417 6448 48197 0.323923505922 2.578230081137 15 28 52 648 29760
477	688839 417 6448 48197 0.323923505922 2.578230081137 15 28 52 648 29760
478	689256 803 6448 48197 0.323923505922 2.578230081137 30 0 1 15 15
479	690059 416 6448 48197 0.323923505922 2.578230081137 15 28 52 648 29760
480	690475 427 6448 48197 0.323923505922 2.578230081137 15 0 0.099286816018 0.198082825867 0.019618523397076
481	690902 416 6448 48197 0.323923505922 2.578230081137 15 51 75 993 67503
482	691318 195 6605 32710 0.324139415989 1.553308648403 7 28 32 212 6448
483	691513 539 6607 50296 0.324139415989 2.752300438757 19 28 540 5296 2644480
484	692052 539 6607 50296 0.324139415989 2.752300438757 19 28 540 5296 2644480
485	692591 1022 6607 50296 0.324139415989 2.752300438757 38 0 2 21 23
486	693613 539 6607 50296 0.324139415989 2.752300438757 19 28 540 5296 2644480
487	694152 577 6607 50296 0.324139415989 2.752300438757 19 0 0.000664877536 0.000999052534 5.5257857669517e-07
488	694729 539 6607 50296 0.324139415989 2.752300438757 19 51 563 5733 2898147
489	695268 82 6960 30218 0.324524682626 1.428228029024 3 28 28 84 2352
490	695350 1107 7138 46674 0.324777393674 2.517599609574 39 51 563 12941 6727567
491	696457 221 8043 47628 0.326109877186 2.57612008205 8 28 32 248 7712
492	696678 304 8045 47630 0.326109877186 2.57612008205 11 28 52 492 23184
493	696982 304 8045 47630 0.326109877186 2.57612008205 11 28 52 492 23184
494	697286 587 8045 47630 0.326109877186 2.57612008205 22 0 1 11 11
495	697873 305 8045 47630 0.326109877186 2.57612008205 11 28 52 492 23184
496	698178 306 8045 47630 0.326109877186 2.57612008205 11 0 7.1406239e-05 7.1406239e-05 5.0988509681251e-09
497	698484 305 8045 47630 0.326109877186 2.57612008205 11 51 75 745 51635
498	698789 550 8424 46670 0.326379639664 2.517599467833 19 512 512 9728 4980736
499	699339 431 8424 45847 0.1 2.5 25 0 245760 696320 98985574400
500	699770 759 8424 46670 0.326379639664 2.517599467833 19 0.004601051151 1.016525769672 3.573015483639 2.224692355641
501	700529 514 8424 46670 0.326379639664 2.517599467833 19 0 10 91 621
502	701043 55 8907 10279 0.326870290141 0.328653553117 2 28 28 56 1568
503	701098 83 9105 39604 0.327122602674 1.806068442559 3 28 28 84 2352
504	701181 137 9273 41679 0.32731438846 2.10774853773 5 28 32 152 4640
505	701318 306 9275 41681 0.32731438846 2.10774853773 11 28 540 1956 889872
506	701624 306 9275 41681 0.32731438846 2.10774853773 11 28 540 1956 889872
507	701930 584 9275 41681 0.32731438846 2.10774853773 22 0 1 11 11
508	702514 306 9275 41681 0.32731438846 2.10774853773 11 28 540 1956 889872
509	702820 292 9275 41681 0.32731438846 2.10774853773 11 0 0 0 0
510	703112 306 9275 41681 0.32731438846 2.10774853773 11 51 563 2209 985667
511	703418 585 9630 44054 0.327662778604 2.35512288308 21 28 32 660 20784
512	704003 576 9630 44054 0.327662778604 2.35512288308 21 1 21 231 3311
513	704579 1662 9638 44139 0.327662800218 2.355455135527 59 51 563 12409 5584451
514	706241 864 9638 44139 0.327662800218 2.355455135527 31 28 52 1424 68384
515	707105 668 9640 44141 0.327662800218 2.355455135527 24 28 32 748 23376
516	707773 659 9640 44141 0.327662800218 2.355455135527 24 1 24 300 4900
517	708432 533 9645 41805 0.327663048113 2.108081197396 19 51 563 4217 1957483
518	708965 250 9645 41805 0.327663048113 2.108081197396 9 28 52 388 17776
519	709215 167 9647 41807 0.327663048113 2.108081197396 6 28 32 184 5664
520	709382 161 9647 41807 0.327663048113 2.108081197396 6 1 6 21 91
521	709543 111 9721 35303 0.327681318459 1.564982697965 4 32 32 128 4096
522	709654 111 9723 35305 0.327681318459 1.564982697965 4 52 52 208 10816
523	709765 111 9723 35305 0.327681318459 1.564982697965 4 52 52 208 10816
524	709876 214 9723 35305 0.327681318459 1.564982697965 8 0 1 4 4
525	710090 111 9723 35305 0.327681318459 1.564982697965 4 52 52 208 10816
526	710201 107 9723 35305 0.327681318459 1.564982697965 4 0 0 0 0
527	710308 111 9723 35305 0.327681318459 1.564982697965 4 75 75 300 22500
528	710419 139 10403 34226 0.328785041342 1.562143431022 5 28 32 156 4880
529	710558 251 10405 34228 0.328785041342 1.562143431022 9 28 52 388 17776
530	710809 251 10405 34228 0.328785041342 1.562143431022 9 28 52 388 17776
531	711060 484 10405 34228 0.328785041342 1.562143431022 18 0 1 9 9
532	711544 251 10405 34228 0.328785041342 1.562143431022 9 28 52 388 17776
533	711795 242 10405 34228 0.328785041342 1.562143431022 9 0 0 0 0
534	712037 251 10405 34228 0.328785041342 1.562143431022 9 51 75 595 40385
535	712288 280 10513 44042 0.328990723369 2.355122729876 10 28 32 304 9280
536	712568 537 10515 44044 0.328990723369 2.355122729876 19 28 540 3828 1777392
537	713105 537 10515 44044 0.328990723369 2.355122729876 19 28 540 3828 1777392
538	713642 1024 10515 44044 0.328990723369 2.355122729876 38 0 1 19 19
539	714666 537 10515 44044 0.328990723369 2.355122729876 19 28 540 3828 1777392
540	715203 538 10515 44044 0.328990723369 2.355122729876 19 0 0.097786433323 0.098062318062 0.0095622626544227
541	715741 537 10515 44044 0.328990723369 2.355122729876 19 51 563 4265 1963531
542	716278 84 10709 36208 0.329239941966 1.567272320297 3 32 32 96 3072
543	716362 84 10711 36210 0.329239941966 1.567272320297 3 52 52 156 8112
544	716446 84 10711 36210 0.329239941966 1.567272320297 3 52 52 156 8112
545	716530 162 10711 36210 0.329239941966 1.567272320297 6 0 1 3 3
546	716692 84 10711 36210 0.329239941966 1.567272320297 3 52 52 156 8112
547	716776 81 10711 36210 0.329239941966 1.567272320297 3 0 0 0 0
548	716857 84 10711 36210 0.329239941966 1.567272320297 3 75 75 225 16875
549	716941 56 11607 36312 0.330702201447 1.567769273919 2 32 32 64 2048
550	716997 56 11609 36314 0.330702201447 1.567769273919 2 52 52 104 5408
551	717053 56 11609 36314 0.330702201447 1.567769273919 2 52 52 104 5408
552	717109 108 11609 36314 0.330702201447 1.567769273919 4 0 1 2 2
553	717217 56 11609 36314 0.330702201447 1.567769273919 2 52 52 104 5408
554	717273 54 11609 36314 0.330702201447 1.567769273919 2 0 0 0 0
555	717327 56 11609 36314 0.330702201447 1.567769273919 2 75 75 150 11250
556	717383 140 11869 41633 0.331416209298 2.107416147616 5 28 32 152 4640
557	717523 283 11871 41635 0.331416209298 2.107416147616 10 28 540 1928 889088
558	717806 283 11871 41635 0.331416209298 2.107416147616 10 28 540 1928 889088
559	718089 540 11871 41635 0.331416209298 2.107416147616 20 0 1 10 10
560	718629 283 11871 41635 0.331416209298 2.107416147616 10 28 540 1928 889088
561	718912 270 11871 41635 0.331416209298 2.107416147616 10 0 0 0 0
562	719182 283 11871 41635 0.331416209298 2.107416147616 10 51 563 2158 983066
563	719465 28 12343 12343 0.332017675126 0.332017675126 1 28 28 28 784
564	719493 686 12412 46676 0.33227006527 2.517599668676 24 51 563 9004 4790144
565	720179 283 12416 41355 0.332270177169 2.009202332918 10 51 563 3622 1917098
566	720462 798 12426 41362 0.332270473096 2.00920262871 28 51 563 10272 5434164
567	721260 1341 12573 50321 0.332602868125 2.752300644101 47 51 563 17445 9263319
568	722601 167 12842 43906 0.334917863734 2.35479019506 6 28 32 184 5664
569	722768 394 12844 43908 0.334917863734 2.35479019506 14 28 540 3600 1766592
570	723162 394 12844 43908 0.334917863734 2.35479019506 14 28 540 3600 1766592
571	723556 748 12844 43908 0.334917863734 2.35479019506 28 0 1 14 14
572	724304 394 12844 43908 0.334917863734 2.35479019506 14 28 540 3600 1766592
573	724698 374 12844 43908 0.334917863734 2.35479019506 14 0 0 0 0
574	725072 394 12844 43908 0.334917863734 2.35479019506 14 51 563 3922 1939598
575	725466 27 13012 13012 0.33551878131 0.33551878131 1 28 28 28 784
576	725493 28 13189 13189 0.335778435339 0.335778435339 1 28 28 28 784
577	725521 28 13231 13231 0.336030825483 0.336030825483 1 28 28 28 784
578	725549 28 13498 13498 0.336910246442 0.336910246442 1 28 28 28 784
579	725577 28 13555 13555 0.337162781176 0.337162781176 1 28 28 28 784
580	725605 56 13788 15927 0.341013392254 0.426710248014 2 28 28 56 1568
581	725661 28 13858 13858 0.341266220691 0.341266220691 1 28 28 28 784
582	725689 56 14012 29591 0.341592103599 1.341592103599 2 28 28 56 1568
583	725745 28 14157 14157 0.344761129226 0.344761129226 1 28 28 28 784
584	725773 28 15494 15494 0.425377697322 0.425377697322 1 28 28 28 784
585	725801 84 15909 30167 0.426710126391 1.427975486023 3 28 28 84 2352
586	725885 84 16118 44716 0.426962806207 2.438515381421 3 28 28 84 2352
587	725969 28 16532 16532 0.427627528327 0.427627528327 1 28 28 28 784
588	725997 55 16714 16991 0.427853799189 0.42803439295 2 28 28 56 1568
589	726052 543 16787 48246 0.42787996019 2.578473540305 19 51 563 7153 3826715
590	726595 28 17313 17313 0.428358560805 0.428358560805 1 28 28 28 784
591	726623 56 17545 30383 0.428764630263 1.428764630263 2 28 28 56 1568
592	726679 56 17798 30431 0.429432019231 1.428813115026 2 28 28 56 1568
593	726735 140 18017 44369 0.432317845648 2.435456771684 5 28 28 140 3920
594	726875 83 18071 47120 0.432570577157 2.57328664302 3 28 28 84 2352
595	726958 56 18440 44420 0.435709409067 2.435709409073 2 28 28 56 1568
596	727014 28 20690 20690 0.755619880101 0.755619880101 1 28 28 28 784
597	727042 56 21243 38128 0.761087402209 1.761087402209 2 28 28 56 1568
598	727098 84 25095 35764 0.813029381249 1.565733980559 3 32 32 96 3072
599	727182 84 25097 35766 0.813029381249 1.565733980559 3 52 52 156 8112
600	727266 84 25097 35766 0.813029381249 1.565733980559 3 52 52 156 8112
601	727350 162 25097 35766 0.813029381249 1.565733980559 6 0 1 3 3
602	727512 84 25097 35766 0.813029381249 1.565733980559 3 52 52 156 8112
603	727596 81 25097 35766 0.813029381249 1.565733980559 3 0 0 0 0
604	727677 84 25097 35766 0.813029381249 1.565733980559 3 75 75 225 16875
605	727761 56 29654 46225 1.341844925744 2.508049396903 2 28 28 56 1568
606	727817 28 29857 29857 1.343872952196 1.343872952196 1 28 28 28 784
607	727845 28 30514 30514 1.429017168639 1.429017168639 1 28 28 28 784
608	727873 56 30918 47025 1.429651598666 2.573033877803 2 28 28 56 1568
609	727929 28 33003 33003 1.557104782743 1.557104782743 1 28 28 28 784
610	727957 56 33676 46711 1.561090417967 2.561090417967 2 28 28 56 1568
611	728013 56 37397 37827 1.755785418074 1.758924000974 2 28 28 56 1568
612	728069 56 39817 47859 1.809954881959 2.576468651178 2 28 28 56 1568
613	728125 28 43034 43034 2.256974272498 2.256974272498 1 28 28 28 784
614	728153 56 43371 47421 2.259163977389 2.575622038533 2 28 28 56 1568
615	728209 28 44592 44592 2.438262683851 2.438262683851 1 28 28 28 784
vector 616 AODV30_TnT.S5.app[0] throughput:vector ETV
attr source throughput(packetReceived)
attr title "throughput, vector"
attr unit bps
vector 617 AODV30_TnT.S1.app[0] throughput:vector ETV
attr source throughput(packetReceived)
attr title "throughput, vector"
attr unit bps
vector 618 AODV30_TnT.S2.app[0] throughput:vector ETV
attr source throughput(packetReceived)
attr title "throughput, vector"
attr unit bps
vector 619 AODV30_TnT.S3.app[0] throughput:vector ETV
attr source throughput(packetReceived)
attr title "throughput, vector"
attr unit bps
vector 620 AODV30_TnT.S4.app[0] throughput:vector ETV
attr source throughput(packetReceived)
attr title "throughput, vector"
attr unit bps
463	728932 63 50471 50471 2.6 2.752302211657 3 0 40960 40960 1677721600
499	728995 63 50471 50471 2.6 2.752302211657 3 0 81920 81920 6710886400
616	729058 455 50471 50471 0.1 2.752302211657 28 0 0 0 0
617	729513 455 50471 50471 0.1 2.752302211657 28 0 0 0 0
618	729968 455 50471 50471 0.1 2.752302211657 28 0 0 0 0
619	730423 455 50471 50471 0.1 2.752302211657 28 0 0 0 0
620	730878 455 50471 50471 0.1 2.752302211657 28 0 0 0 0

