version 2
run TnTAODV30_Mobility_0mps-0-20210524-16:05:11-4126
attr configname TnTAODV30_Mobility_0mps
attr datetime 20210524-16:05:11
attr experiment TnTAODV30_Mobility_0mps
attr inifile AODV30_TnT.ini
attr iterationvars ""
attr iterationvarsf ""
attr measurement ""
attr network AODV30_TnT
attr processid 4126
attr repetition 0
attr replication #0
attr resultdir results
attr runnumber 0
attr seedset 0
param **.H*.mobility.typename "\"MassMobility\""
param **.S*.mobility.typename "\"MassMobility\""
param **.*.mobility.changeInterval "normal(5s, 0.1s)"
param **.*.mobility.angleDelta "normal(0deg, 30deg)"
param **.*.mobility.speed "normal(0mps, 0.01mps)"
param **.wlan[*].typename "\"AckingWirelessInterface\""
param **.wlan[*].bitrate 2Mbps
param **.wlan[*].mac.headerLength 23B
param **.wlan[*].radio.typename "\"UnitDiskRadio\""
param **.wlan[*].radio.transmitter.headerLength 96b
param **.wlan[*].radio.transmitter.communicationRange 250m
param **.wlan[*].radio.transmitter.interferenceRange 0m
param **.wlan[*].radio.transmitter.detectionRange 0m
param **.wlan[*].radio.receiver.ignoreInterference true
param **.host[*].mobility.typename "\"StationaryMobility\""
param **.mobility.constraintAreaMinZ 0m
param **.mobility.constraintAreaMaxZ 0m
param **.mobility.constraintAreaMinX 10m
param **.mobility.constraintAreaMinY 10m
param **.mobility.constraintAreaMaxX 1000m
param **.mobility.constraintAreaMaxY 700m
param *.visualizer.sceneVisualizer.descriptionFigure "\"title\""
param *.S*.numApps 1
param *.S*.app[0].typename "\"UdpBasicApp\""
param *.S*.app[0].destPort 1000
param *.S*.app[0].sendInterval 0.25s
param *.S*.app[0].startTime 0s
param *.S*.app[0].messageLength 512Byte
param *.S*.app[0].packetName "\"UDPdata\""
param *.Bs1.numApps 1
param *.Bs1.app[0].typename "\"UdpSink\""
param *.Bs1.app[0].localPort 1000
param *.Bs2.numApps 1
param *.Bs2.app[0].typename "\"UdpSink\""
param *.Bs2.app[0].localPort 1000
param *.S1.app[0].destAddresses "\"Bs1\""
param *.S2.app[0].destAddresses "\"Bs1\""
param *.S3.app[0].destAddresses "\"Bs2\""
param *.S4.app[0].destAddresses "\"Bs2\""
param *.S5.app[0].destAddresses "\"Bs1\""
param **.hasStatus true

scalar AODV30_TnT.radioMedium.propagation "Arrival computation count" 18936
scalar AODV30_TnT.radioMedium "transmission count" 526
scalar AODV30_TnT.radioMedium "signal send count" 18936
scalar AODV30_TnT.radioMedium "reception computation count" 18934
scalar AODV30_TnT.radioMedium "interference computation count" 51080
scalar AODV30_TnT.radioMedium "reception decision computation count" 3462
scalar AODV30_TnT.radioMedium "listening decision computation count" 28720
scalar AODV30_TnT.radioMedium "reception cache hit" 86.203831216619
attr unit %
scalar AODV30_TnT.radioMedium "interference cache hit" 66.666666666667
attr unit %
scalar AODV30_TnT.radioMedium "noise cache hit" 0
attr unit %
scalar AODV30_TnT.radioMedium "snir cache hit" 50
attr unit %
scalar AODV30_TnT.radioMedium "reception decision cache hit" 50
attr unit %
scalar AODV30_TnT.radioMedium "reception result cache hit" 0
attr unit %
scalar AODV30_TnT.Bs1.lo[0].lo rcvdPkFromHl:count 0
attr interpolationmode none
attr source packetReceivedFromUpper
attr title "packets received from higher layer, count"
scalar AODV30_TnT.Bs1.lo[0].lo rcvdPkFromHl:sum(packetBytes) 0
attr interpolationmode none
attr source packetReceivedFromUpper
attr title "packets received from higher layer, sum(packetBytes)"
scalar AODV30_TnT.Bs1.lo[0].lo passedUpPk:count 0
attr interpolationmode none
attr source packetSentToUpper
attr title "packets passed to higher layer, count"
scalar AODV30_TnT.Bs1.lo[0].lo passedUpPk:sum(packetBytes) 0
attr interpolationmode none
attr source packetSentToUpper
attr title "packets passed to higher layer, sum(packetBytes)"
scalar AODV30_TnT.Bs1.wlan[0].mac.queue packetPopped:count 24
attr interpolationmode none
attr title "packet popped, count"
scalar AODV30_TnT.Bs1.wlan[0].mac.queue packetPopped:sum(packetBytes) 1000
attr interpolationmode none
attr title "packet popped, sum(packetBytes)"
statistic AODV30_TnT.Bs1.wlan[0].mac.queue queueingTime:histogram
field count 24
field mean 0.0288514924885
field stddev 0.045924395177618
field min 0
field max 0.100079939162
field sum 0.692435819724
field sqrsum 0.068485958517426
attr interpolationmode none
attr source queueingTime(packetPopped)
attr title "queueing times, histogram"
attr unit s
bin	-inf	0
bin	0	17
bin	0.002	0
bin	0.004	0
bin	0.006	0
bin	0.008	0
bin	0.01	0
bin	0.012	0
bin	0.014	0
bin	0.016	0
bin	0.018	0
bin	0.02	0
bin	0.022	0
bin	0.024	0
bin	0.026	0
bin	0.028	0
bin	0.03	0
bin	0.032	0
bin	0.034	0
bin	0.036	0
bin	0.038	0
bin	0.04	0
bin	0.042	0
bin	0.044	0
bin	0.046	0
bin	0.048	0
bin	0.05	0
bin	0.052	0
bin	0.054	0
bin	0.056	0
bin	0.058	0
bin	0.06	0
bin	0.062	0
bin	0.064	0
bin	0.066	0
bin	0.068	0
bin	0.07	0
bin	0.072	0
bin	0.074	0
bin	0.076	0
bin	0.078	0
bin	0.08	0
bin	0.082	0
bin	0.084	0
bin	0.086	0
bin	0.088	0
bin	0.09	0
bin	0.092	0
bin	0.094	0
bin	0.096	2
bin	0.098	4
bin	0.1	1
bin	0.102	0
bin	0.104	0
bin	0.106	0
bin	0.108	0
bin	0.11	0
bin	0.112	0
bin	0.114	0
bin	0.116	0
bin	0.118	0
bin	0.12	0
bin	0.122	0
bin	0.124	0
bin	0.126	0
scalar AODV30_TnT.Bs1.wlan[0].mac.queue queueLength:max 2
attr interpolationmode sample-hold
attr source "count(packetPushed) - count(packetPopped) - count(packetRemoved) - count(packetDropped)"
attr title "queue length, max"
scalar AODV30_TnT.Bs1.wlan[0].mac.queue queueLength:timeavg 0.25200894521054
attr interpolationmode sample-hold
attr source "count(packetPushed) - count(packetPopped) - count(packetRemoved) - count(packetDropped)"
attr title "queue length, timeavg"
scalar AODV30_TnT.Bs1.wlan[0].mac.queue packetPushed:count 24
attr interpolationmode none
attr title "packet pushed, count"
scalar AODV30_TnT.Bs1.wlan[0].mac.queue packetPushed:sum(packetBytes) 1000
attr interpolationmode none
attr title "packet pushed, sum(packetBytes)"
scalar AODV30_TnT.Bs1.wlan[0].mac.queue packetDropQueueOverflow:count 0
attr interpolationmode none
attr source packetDropReasonIsQueueOverflow(packetDropped)
attr title "packet drops: queue overflow, count"
scalar AODV30_TnT.Bs1.wlan[0].mac.queue packetDropQueueOverflow:sum(packetBytes) 0
attr interpolationmode none
attr source packetDropReasonIsQueueOverflow(packetDropped)
attr title "packet drops: queue overflow, sum(packetBytes)"
scalar AODV30_TnT.Bs1.wlan[0].mac.queue packetRemoved:count 0
attr interpolationmode none
attr title "packets removed, count"
scalar AODV30_TnT.Bs1.wlan[0].mac.queue packetRemoved:sum(packetBytes) 0
attr interpolationmode none
attr title "packets removed, sum(packetBytes)"
scalar AODV30_TnT.Bs1.wlan[0].mac rcvdPkFromLl:count 140
attr interpolationmode none
attr source packetReceivedFromLower
attr title "packets received from lower layer, count"
scalar AODV30_TnT.Bs1.wlan[0].mac rcvdPkFromLl:sum(packetBytes) 24760
attr interpolationmode none
attr source packetReceivedFromLower
attr title "packets received from lower layer, sum(packetBytes)"
scalar AODV30_TnT.Bs1.wlan[0].mac sentDownPk:count 24
attr interpolationmode none
attr source packetSentToLower
attr title "packets sent to lower layer, count"
scalar AODV30_TnT.Bs1.wlan[0].mac sentDownPk:sum(packetBytes) 1552
attr interpolationmode none
attr source packetSentToLower
attr title "packets sent to lower layer, sum(packetBytes)"
scalar AODV30_TnT.Bs1.wlan[0].mac rcvdPkFromHl:count 24
attr interpolationmode none
attr source packetReceivedFromUpper
attr title "packets received from higher layer, count"
scalar AODV30_TnT.Bs1.wlan[0].mac rcvdPkFromHl:sum(packetBytes) 1000
attr interpolationmode none
attr source packetReceivedFromUpper
attr title "packets received from higher layer, sum(packetBytes)"
scalar AODV30_TnT.Bs1.wlan[0].mac passedUpPk:count 105
attr interpolationmode none
attr source packetSentToUpper
attr title "packets passed to higher layer, count"
scalar AODV30_TnT.Bs1.wlan[0].mac passedUpPk:sum(packetBytes) 15200
attr interpolationmode none
attr source packetSentToUpper
attr title "packets passed to higher layer, sum(packetBytes)"
scalar AODV30_TnT.Bs1.wlan[0].mac packetDropIncorrectlyReceived:count 0
attr interpolationmode none
attr source packetDropReasonIsIncorrectlyReceived(packetDropped)
attr title "packet drop: incorrectly received, count"
scalar AODV30_TnT.Bs1.wlan[0].mac packetDropIncorrectlyReceived:sum(packetBytes) 0
attr interpolationmode none
attr source packetDropReasonIsIncorrectlyReceived(packetDropped)
attr title "packet drop: incorrectly received, sum(packetBytes)"
scalar AODV30_TnT.Bs1.wlan[0].mac packetDropInterfaceDown:count 0
attr interpolationmode none
attr source packetDropReasonIsInterfaceDown(packetDropped)
attr title "packet drop: interface down, count"
scalar AODV30_TnT.Bs1.wlan[0].mac packetDropInterfaceDown:sum(packetBytes) 0
attr interpolationmode none
attr source packetDropReasonIsInterfaceDown(packetDropped)
attr title "packet drop: interface down, sum(packetBytes)"
scalar AODV30_TnT.Bs1.wlan[0].mac packetDropNotAddressedToUs:count 35
attr interpolationmode none
attr source packetDropReasonIsNotAddressedToUs(packetDropped)
attr title "packet drop: not addressed to us, count"
scalar AODV30_TnT.Bs1.wlan[0].mac packetDropNotAddressedToUs:sum(packetBytes) 7145
attr interpolationmode none
attr source packetDropReasonIsNotAddressedToUs(packetDropped)
attr title "packet drop: not addressed to us, sum(packetBytes)"
scalar AODV30_TnT.Bs1.wlan[0].mac linkBroken:count 6
attr interpolationmode none
attr source linkBroken
attr title "link break, count"
scalar AODV30_TnT.Bs1.wlan[0].radio radioMode:count 3
attr interpolationmode sample-hold
attr source radioModeChanged
attr title "Radio mode, count"
scalar AODV30_TnT.Bs1.wlan[0].radio receptionState:count 303
attr interpolationmode sample-hold
attr source receptionStateChanged
attr title "Radio reception state, count"
scalar AODV30_TnT.Bs1.wlan[0].radio transmissionState:count 49
attr interpolationmode sample-hold
attr source transmissionStateChanged
attr title "Radio transmission state, count"
statistic AODV30_TnT.Bs1.wlan[0].radio minSnir:histogram
field count 0
field mean -nan
field stddev nan
field min nan
field max nan
field sum 0
field sqrsum 0
attr source minimumSnir(packetSentToUpper)
attr title "Min SNIR, histogram"
bin	-inf	0
bin	0	0
bin	1	0
statistic AODV30_TnT.Bs1.wlan[0].radio packetErrorRate:histogram
field count 140
field mean 0.3
field stddev 0.45990302387232
field min 0
field max 1
field sum 42
field sqrsum 42
attr source packetErrorRate(packetSentToUpper)
attr title "Packet error rate, histogram"
bin	-inf	0
bin	0	98
bin	1	42
bin	2	0
statistic AODV30_TnT.Bs1.wlan[0].radio bitErrorRate:histogram
field count 140
field mean 0.3
field stddev 0.45990302387232
field min 0
field max 1
field sum 42
field sqrsum 42
attr source bitErrorRate(packetSentToUpper)
attr title "Bit error rate, histogram"
bin	-inf	0
bin	0	98
bin	1	42
bin	2	0
statistic AODV30_TnT.Bs1.wlan[0].radio symbolErrorRate:histogram
field count 140
field mean 0.3
field stddev 0.45990302387232
field min 0
field max 1
field sum 42
field sqrsum 42
attr source symbolErrorRate(packetSentToUpper)
attr title "Symbol error rate, histogram"
bin	-inf	0
bin	0	98
bin	1	42
bin	2	0
scalar AODV30_TnT.Bs1.ipv4.ip packetDropAddressResolutionFailed:count 0
attr interpolationmode none
attr source packetDropReasonIsAddressResolutionFailed(packetDropped)
attr title "packet drop: address resolution failed, count"
scalar AODV30_TnT.Bs1.ipv4.ip packetDropAddressResolutionFailed:sum(packetBytes) 0
attr interpolationmode none
attr source packetDropReasonIsAddressResolutionFailed(packetDropped)
attr title "packet drop: address resolution failed, sum(packetBytes)"
scalar AODV30_TnT.Bs1.ipv4.ip packetDropHopLimitReached:count 0
attr interpolationmode none
attr source packetDropReasonIsHopLimitReached(packetDropped)
attr title "packet drop: hop limit reached, count"
scalar AODV30_TnT.Bs1.ipv4.ip packetDropHopLimitReached:sum(packetBytes) 0
attr interpolationmode none
attr source packetDropReasonIsHopLimitReached(packetDropped)
attr title "packet drop: hop limit reached, sum(packetBytes)"
scalar AODV30_TnT.Bs1.ipv4.ip packetDropForwardingDisabled:count 0
attr interpolationmode none
attr source packetDropReasonIsForwardingDisabled(packetDropped)
attr title "packet drop: forwarding disabled, count"
scalar AODV30_TnT.Bs1.ipv4.ip packetDropForwardingDisabled:sum(packetBytes) 0
attr interpolationmode none
attr source packetDropReasonIsForwardingDisabled(packetDropped)
attr title "packet drop: forwarding disabled, sum(packetBytes)"
scalar AODV30_TnT.Bs1.ipv4.ip packetDropNoInterfaceFound:count 0
attr interpolationmode none
attr source packetDropReasonIsNoInterfaceFound(packetDropped)
attr title "packet drop: no interface found, count"
scalar AODV30_TnT.Bs1.ipv4.ip packetDropNoInterfaceFound:sum(packetBytes) 0
attr interpolationmode none
attr source packetDropReasonIsNoInterfaceFound(packetDropped)
attr title "packet drop: no interface found, sum(packetBytes)"
scalar AODV30_TnT.Bs1.ipv4.ip packetDropNoRouteFound:count 0
attr interpolationmode none
attr source packetDropReasonIsNoRouteFound(packetDropped)
attr title "packet drop: no route found, count"
scalar AODV30_TnT.Bs1.ipv4.ip packetDropNoRouteFound:sum(packetBytes) 0
attr interpolationmode none
attr source packetDropReasonIsNoRouteFound(packetDropped)
attr title "packet drop: no route found, sum(packetBytes)"
scalar AODV30_TnT.Bs1.ipv4.ip packetDropUndefined:count 0
attr interpolationmode none
attr source packetDropReasonIsUndefined(packetDropped)
attr title "packet drop: undefined, count"
scalar AODV30_TnT.Bs1.ipv4.ip packetDropUndefined:sum(packetBytes) 0
attr interpolationmode none
attr source packetDropReasonIsUndefined(packetDropped)
attr title "packet drop: undefined, sum(packetBytes)"
scalar AODV30_TnT.Bs1.ipv4.arp arpResolutionFailed:count 0
attr title "ARP failed resolutions, count"
scalar AODV30_TnT.Bs1.ipv4.arp arpResolutionCompleted:count 19
attr title "ARP completed resolutions, count"
scalar AODV30_TnT.Bs1.ipv4.arp arpResolutionInitiated:count 5
attr title "ARP initiated resolutions, count"
scalar AODV30_TnT.Bs1.ipv4.arp arpReplySent:count 3
attr source arpReplySent
attr title "ARP replies sent, count"
scalar AODV30_TnT.Bs1.ipv4.arp arpReplySent:sum(packetBytes) 84
attr source arpReplySent
attr title "ARP replies sent, sum(packetBytes)"
scalar AODV30_TnT.Bs1.ipv4.arp arpRequestSent:count 6
attr source arpRequestSent
attr title "ARP request sent, count"
scalar AODV30_TnT.Bs1.ipv4.arp arpRequestSent:sum(packetBytes) 168
attr source arpRequestSent
attr title "ARP request sent, sum(packetBytes)"
scalar AODV30_TnT.Bs1.udp packetReceived:count 84
attr interpolationmode none
attr source packetReceived
attr title "packets received, count"
scalar AODV30_TnT.Bs1.udp packetReceived:sum(packetBytes) 12932
attr interpolationmode none
attr source packetReceived
attr title "packets received, sum(packetBytes)"
scalar AODV30_TnT.Bs1.udp packetSent:count 15
attr interpolationmode none
attr source packetSent
attr title "packets sent, count"
scalar AODV30_TnT.Bs1.udp packetSent:sum(packetBytes) 448
attr interpolationmode none
attr source packetSent
attr title "packets sent, sum(packetBytes)"
scalar AODV30_TnT.Bs1.udp passedUpPk:count 84
attr interpolationmode none
attr source packetSentToUpper
attr title "packets passed up, count"
scalar AODV30_TnT.Bs1.udp droppedPkWrongPort:count 0
attr interpolationmode none
attr source packetDropReasonIsNoPortFound(packetDropped)
attr title "packets dropped (wrong port), count"
scalar AODV30_TnT.Bs1.udp droppedPkBadChecksum:count 0
attr interpolationmode none
attr source packetDropReasonIsIncorrectlyReceived(packetDropped)
attr title "packets dropped (checksum error), count"
scalar AODV30_TnT.Bs1.app[0] packetReceived:count 21
attr interpolationmode none
attr source packetReceived
attr title "packets received, count"
scalar AODV30_TnT.Bs1.app[0] packetReceived:sum(packetBytes) 10752
attr interpolationmode none
attr source packetReceived
attr title "packets received, sum(packetBytes)"
statistic AODV30_TnT.Bs1.app[0] endToEndDelay:histogram
field count 21
field mean 0.20292007332514
field stddev 0.4088703383634
field min 0.00230082764
field max 1.432790837298
field sum 4.261321539828
field sqrsum 4.208206751192
attr interpolationmode none
attr source dataAge(packetReceived)
attr title "end-to-end delay, histogram"
attr unit s
bin	-inf	0
bin	0	14
bin	0.02	1
bin	0.04	0
bin	0.06	0
bin	0.08	0
bin	0.1	0
bin	0.12	0
bin	0.14	0
bin	0.16	0
bin	0.18	1
bin	0.2	1
bin	0.22	0
bin	0.24	0
bin	0.26	0
bin	0.28	0
bin	0.3	0
bin	0.32	0
bin	0.34	0
bin	0.36	0
bin	0.38	0
bin	0.4	0
bin	0.42	1
bin	0.44	0
bin	0.46	0
bin	0.48	0
bin	0.5	0
bin	0.52	0
bin	0.54	0
bin	0.56	0
bin	0.58	0
bin	0.6	0
bin	0.62	0
bin	0.64	0
bin	0.66	0
bin	0.68	1
bin	0.7	0
bin	0.72	0
bin	0.74	0
bin	0.76	0
bin	0.78	0
bin	0.8	0
bin	0.82	0
bin	0.84	0
bin	0.86	0
bin	0.88	0
bin	0.9	0
bin	0.92	0
bin	0.94	0
bin	0.96	0
bin	0.98	0
bin	1	0
bin	1.02	0
bin	1.04	0
bin	1.06	0
bin	1.08	0
bin	1.1	0
bin	1.12	0
bin	1.14	0
bin	1.16	0
bin	1.18	1
bin	1.2	0
bin	1.22	0
bin	1.24	0
bin	1.26	0
bin	1.28	0
bin	1.3	0
bin	1.32	0
bin	1.34	0
bin	1.36	0
bin	1.38	0
bin	1.4	0
bin	1.42	1
bin	1.44	0
bin	1.46	0
bin	1.48	0
bin	1.5	0
bin	1.52	0
bin	1.54	0
bin	1.56	0
bin	1.58	0
bin	1.6	0
bin	1.62	0
bin	1.64	0
bin	1.66	0
bin	1.68	0
bin	1.7	0
bin	1.72	0
bin	1.74	0
bin	1.76	0
bin	1.78	0
bin	1.8	0
scalar AODV30_TnT.S5.lo[0].lo rcvdPkFromHl:count 0
attr interpolationmode none
attr source packetReceivedFromUpper
attr title "packets received from higher layer, count"
scalar AODV30_TnT.S5.lo[0].lo rcvdPkFromHl:sum(packetBytes) 0
attr interpolationmode none
attr source packetReceivedFromUpper
attr title "packets received from higher layer, sum(packetBytes)"
scalar AODV30_TnT.S5.lo[0].lo passedUpPk:count 0
attr interpolationmode none
attr source packetSentToUpper
attr title "packets passed to higher layer, count"
scalar AODV30_TnT.S5.lo[0].lo passedUpPk:sum(packetBytes) 0
attr interpolationmode none
attr source packetSentToUpper
attr title "packets passed to higher layer, sum(packetBytes)"
scalar AODV30_TnT.S5.wlan[0].mac.queue packetPopped:count 27
attr interpolationmode none
attr title "packet popped, count"
scalar AODV30_TnT.S5.wlan[0].mac.queue packetPopped:sum(packetBytes) 7168
attr interpolationmode none
attr title "packet popped, sum(packetBytes)"
statistic AODV30_TnT.S5.wlan[0].mac.queue queueingTime:histogram
field count 27
field mean 0.0018414278002593
field stddev 0.0054796822683242
field min 0
field max 0.026710274207
field sum 0.049718550607
field sqrsum 0.00087225298308277
attr interpolationmode none
attr source queueingTime(packetPopped)
attr title "queueing times, histogram"
attr unit s
bin	-inf	0
bin	0	22
bin	0.0005	0
bin	0.001	0
bin	0.0015	0
bin	0.002	1
bin	0.0025	0
bin	0.003	0
bin	0.0035	0
bin	0.004	0
bin	0.0045	1
bin	0.005	0
bin	0.0055	0
bin	0.006	0
bin	0.0065	1
bin	0.007	0
bin	0.0075	0
bin	0.008	0
bin	0.0085	0
bin	0.009	1
bin	0.0095	0
bin	0.01	0
bin	0.0105	0
bin	0.011	0
bin	0.0115	0
bin	0.012	0
bin	0.0125	0
bin	0.013	0
bin	0.0135	0
bin	0.014	0
bin	0.0145	0
bin	0.015	0
bin	0.0155	0
bin	0.016	0
bin	0.0165	0
bin	0.017	0
bin	0.0175	0
bin	0.018	0
bin	0.0185	0
bin	0.019	0
bin	0.0195	0
bin	0.02	0
bin	0.0205	0
bin	0.021	0
bin	0.0215	0
bin	0.022	0
bin	0.0225	0
bin	0.023	0
bin	0.0235	0
bin	0.024	0
bin	0.0245	0
bin	0.025	0
bin	0.0255	0
bin	0.026	0
bin	0.0265	1
bin	0.027	0
bin	0.0275	0
bin	0.028	0
bin	0.0285	0
bin	0.029	0
bin	0.0295	0
bin	0.03	0
bin	0.0305	0
bin	0.031	0
bin	0.0315	0
bin	0.032	0
bin	0.0325	0
bin	0.033	0
bin	0.0335	0
scalar AODV30_TnT.S5.wlan[0].mac.queue queueLength:max 4
attr interpolationmode sample-hold
attr source "count(packetPushed) - count(packetPopped) - count(packetRemoved) - count(packetDropped)"
attr title "queue length, max"
scalar AODV30_TnT.S5.wlan[0].mac.queue queueLength:timeavg 0.018092549034794
attr interpolationmode sample-hold
attr source "count(packetPushed) - count(packetPopped) - count(packetRemoved) - count(packetDropped)"
attr title "queue length, timeavg"
scalar AODV30_TnT.S5.wlan[0].mac.queue packetPushed:count 27
attr interpolationmode none
attr title "packet pushed, count"
scalar AODV30_TnT.S5.wlan[0].mac.queue packetPushed:sum(packetBytes) 7168
attr interpolationmode none
attr title "packet pushed, sum(packetBytes)"
scalar AODV30_TnT.S5.wlan[0].mac.queue packetDropQueueOverflow:count 0
attr interpolationmode none
attr source packetDropReasonIsQueueOverflow(packetDropped)
attr title "packet drops: queue overflow, count"
scalar AODV30_TnT.S5.wlan[0].mac.queue packetDropQueueOverflow:sum(packetBytes) 0
attr interpolationmode none
attr source packetDropReasonIsQueueOverflow(packetDropped)
attr title "packet drops: queue overflow, sum(packetBytes)"
scalar AODV30_TnT.S5.wlan[0].mac.queue packetRemoved:count 0
attr interpolationmode none
attr title "packets removed, count"
scalar AODV30_TnT.S5.wlan[0].mac.queue packetRemoved:sum(packetBytes) 0
attr interpolationmode none
attr title "packets removed, sum(packetBytes)"
scalar AODV30_TnT.S5.wlan[0].mac rcvdPkFromLl:count 81
attr interpolationmode none
attr source packetReceivedFromLower
attr title "packets received from lower layer, count"
scalar AODV30_TnT.S5.wlan[0].mac rcvdPkFromLl:sum(packetBytes) 9363
attr interpolationmode none
attr source packetReceivedFromLower
attr title "packets received from lower layer, sum(packetBytes)"
scalar AODV30_TnT.S5.wlan[0].mac sentDownPk:count 27
attr interpolationmode none
attr source packetSentToLower
attr title "packets sent to lower layer, count"
scalar AODV30_TnT.S5.wlan[0].mac sentDownPk:sum(packetBytes) 7789
attr interpolationmode none
attr source packetSentToLower
attr title "packets sent to lower layer, sum(packetBytes)"
scalar AODV30_TnT.S5.wlan[0].mac rcvdPkFromHl:count 27
attr interpolationmode none
attr source packetReceivedFromUpper
attr title "packets received from higher layer, count"
scalar AODV30_TnT.S5.wlan[0].mac rcvdPkFromHl:sum(packetBytes) 7168
attr interpolationmode none
attr source packetReceivedFromUpper
attr title "packets received from higher layer, sum(packetBytes)"
scalar AODV30_TnT.S5.wlan[0].mac passedUpPk:count 58
attr interpolationmode none
attr source packetSentToUpper
attr title "packets passed to higher layer, count"
scalar AODV30_TnT.S5.wlan[0].mac passedUpPk:sum(packetBytes) 2620
attr interpolationmode none
attr source packetSentToUpper
attr title "packets passed to higher layer, sum(packetBytes)"
scalar AODV30_TnT.S5.wlan[0].mac packetDropIncorrectlyReceived:count 0
attr interpolationmode none
attr source packetDropReasonIsIncorrectlyReceived(packetDropped)
attr title "packet drop: incorrectly received, count"
scalar AODV30_TnT.S5.wlan[0].mac packetDropIncorrectlyReceived:sum(packetBytes) 0
attr interpolationmode none
attr source packetDropReasonIsIncorrectlyReceived(packetDropped)
attr title "packet drop: incorrectly received, sum(packetBytes)"
scalar AODV30_TnT.S5.wlan[0].mac packetDropInterfaceDown:count 0
attr interpolationmode none
attr source packetDropReasonIsInterfaceDown(packetDropped)
attr title "packet drop: interface down, count"
scalar AODV30_TnT.S5.wlan[0].mac packetDropInterfaceDown:sum(packetBytes) 0
attr interpolationmode none
attr source packetDropReasonIsInterfaceDown(packetDropped)
attr title "packet drop: interface down, sum(packetBytes)"
scalar AODV30_TnT.S5.wlan[0].mac packetDropNotAddressedToUs:count 23
attr interpolationmode none
attr source packetDropReasonIsNotAddressedToUs(packetDropped)
attr title "packet drop: not addressed to us, count"
scalar AODV30_TnT.S5.wlan[0].mac packetDropNotAddressedToUs:sum(packetBytes) 5409
attr interpolationmode none
attr source packetDropReasonIsNotAddressedToUs(packetDropped)
attr title "packet drop: not addressed to us, sum(packetBytes)"
scalar AODV30_TnT.S5.wlan[0].mac linkBroken:count 3
attr interpolationmode none
attr source linkBroken
attr title "link break, count"
scalar AODV30_TnT.S5.wlan[0].radio radioMode:count 3
attr interpolationmode sample-hold
attr source radioModeChanged
attr title "Radio mode, count"
scalar AODV30_TnT.S5.wlan[0].radio receptionState:count 176
attr interpolationmode sample-hold
attr source receptionStateChanged
attr title "Radio reception state, count"
scalar AODV30_TnT.S5.wlan[0].radio transmissionState:count 55
attr interpolationmode sample-hold
attr source transmissionStateChanged
attr title "Radio transmission state, count"
statistic AODV30_TnT.S5.wlan[0].radio minSnir:histogram
field count 0
field mean -nan
field stddev nan
field min nan
field max nan
field sum 0
field sqrsum 0
attr source minimumSnir(packetSentToUpper)
attr title "Min SNIR, histogram"
bin	-inf	0
bin	0	0
bin	1	0
statistic AODV30_TnT.S5.wlan[0].radio packetErrorRate:histogram
field count 81
field mean 0.19753086419753
field stddev 0.40061680838489
field min 0
field max 1
field sum 16
field sqrsum 16
attr source packetErrorRate(packetSentToUpper)
attr title "Packet error rate, histogram"
bin	-inf	0
bin	0	65
bin	1	16
bin	2	0
statistic AODV30_TnT.S5.wlan[0].radio bitErrorRate:histogram
field count 81
field mean 0.19753086419753
field stddev 0.40061680838489
field min 0
field max 1
field sum 16
field sqrsum 16
attr source bitErrorRate(packetSentToUpper)
attr title "Bit error rate, histogram"
bin	-inf	0
bin	0	65
bin	1	16
bin	2	0
statistic AODV30_TnT.S5.wlan[0].radio symbolErrorRate:histogram
field count 81
field mean 0.19753086419753
field stddev 0.40061680838489
field min 0
field max 1
field sum 16
field sqrsum 16
attr source symbolErrorRate(packetSentToUpper)
attr title "Symbol error rate, histogram"
bin	-inf	0
bin	0	65
bin	1	16
bin	2	0
scalar AODV30_TnT.S5.ipv4.ip packetDropAddressResolutionFailed:count 0
attr interpolationmode none
attr source packetDropReasonIsAddressResolutionFailed(packetDropped)
attr title "packet drop: address resolution failed, count"
scalar AODV30_TnT.S5.ipv4.ip packetDropAddressResolutionFailed:sum(packetBytes) 0
attr interpolationmode none
attr source packetDropReasonIsAddressResolutionFailed(packetDropped)
attr title "packet drop: address resolution failed, sum(packetBytes)"
scalar AODV30_TnT.S5.ipv4.ip packetDropHopLimitReached:count 0
attr interpolationmode none
attr source packetDropReasonIsHopLimitReached(packetDropped)
attr title "packet drop: hop limit reached, count"
scalar AODV30_TnT.S5.ipv4.ip packetDropHopLimitReached:sum(packetBytes) 0
attr interpolationmode none
attr source packetDropReasonIsHopLimitReached(packetDropped)
attr title "packet drop: hop limit reached, sum(packetBytes)"
scalar AODV30_TnT.S5.ipv4.ip packetDropForwardingDisabled:count 0
attr interpolationmode none
attr source packetDropReasonIsForwardingDisabled(packetDropped)
attr title "packet drop: forwarding disabled, count"
scalar AODV30_TnT.S5.ipv4.ip packetDropForwardingDisabled:sum(packetBytes) 0
attr interpolationmode none
attr source packetDropReasonIsForwardingDisabled(packetDropped)
attr title "packet drop: forwarding disabled, sum(packetBytes)"
scalar AODV30_TnT.S5.ipv4.ip packetDropNoInterfaceFound:count 0
attr interpolationmode none
attr source packetDropReasonIsNoInterfaceFound(packetDropped)
attr title "packet drop: no interface found, count"
scalar AODV30_TnT.S5.ipv4.ip packetDropNoInterfaceFound:sum(packetBytes) 0
attr interpolationmode none
attr source packetDropReasonIsNoInterfaceFound(packetDropped)
attr title "packet drop: no interface found, sum(packetBytes)"
scalar AODV30_TnT.S5.ipv4.ip packetDropNoRouteFound:count 0
attr interpolationmode none
attr source packetDropReasonIsNoRouteFound(packetDropped)
attr title "packet drop: no route found, count"
scalar AODV30_TnT.S5.ipv4.ip packetDropNoRouteFound:sum(packetBytes) 0
attr interpolationmode none
attr source packetDropReasonIsNoRouteFound(packetDropped)
attr title "packet drop: no route found, sum(packetBytes)"
scalar AODV30_TnT.S5.ipv4.ip packetDropUndefined:count 0
attr interpolationmode none
attr source packetDropReasonIsUndefined(packetDropped)
attr title "packet drop: undefined, count"
scalar AODV30_TnT.S5.ipv4.ip packetDropUndefined:sum(packetBytes) 0
attr interpolationmode none
attr source packetDropReasonIsUndefined(packetDropped)
attr title "packet drop: undefined, sum(packetBytes)"
scalar AODV30_TnT.S5.ipv4.arp arpResolutionFailed:count 0
attr title "ARP failed resolutions, count"
scalar AODV30_TnT.S5.ipv4.arp arpResolutionCompleted:count 13
attr title "ARP completed resolutions, count"
scalar AODV30_TnT.S5.ipv4.arp arpResolutionInitiated:count 0
attr title "ARP initiated resolutions, count"
scalar AODV30_TnT.S5.ipv4.arp arpReplySent:count 4
attr source arpReplySent
attr title "ARP replies sent, count"
scalar AODV30_TnT.S5.ipv4.arp arpReplySent:sum(packetBytes) 112
attr source arpReplySent
attr title "ARP replies sent, sum(packetBytes)"
scalar AODV30_TnT.S5.ipv4.arp arpRequestSent:count 0
attr source arpRequestSent
attr title "ARP request sent, count"
scalar AODV30_TnT.S5.ipv4.arp arpRequestSent:sum(packetBytes) 0
attr source arpRequestSent
attr title "ARP request sent, sum(packetBytes)"
scalar AODV30_TnT.S5.udp packetReceived:count 42
attr interpolationmode none
attr source packetReceived
attr title "packets received, count"
scalar AODV30_TnT.S5.udp packetReceived:sum(packetBytes) 1332
attr interpolationmode none
attr source packetReceived
attr title "packets received, sum(packetBytes)"
scalar AODV30_TnT.S5.udp packetSent:count 23
attr interpolationmode none
attr source packetSent
attr title "packets sent, count"
scalar AODV30_TnT.S5.udp packetSent:sum(packetBytes) 6596
attr interpolationmode none
attr source packetSent
attr title "packets sent, sum(packetBytes)"
scalar AODV30_TnT.S5.udp passedUpPk:count 42
attr interpolationmode none
attr source packetSentToUpper
attr title "packets passed up, count"
scalar AODV30_TnT.S5.udp droppedPkWrongPort:count 0
attr interpolationmode none
attr source packetDropReasonIsNoPortFound(packetDropped)
attr title "packets dropped (wrong port), count"
scalar AODV30_TnT.S5.udp droppedPkBadChecksum:count 0
attr interpolationmode none
attr source packetDropReasonIsIncorrectlyReceived(packetDropped)
attr title "packets dropped (checksum error), count"
scalar AODV30_TnT.S5.app[0] "packets sent" 12
scalar AODV30_TnT.S5.app[0] "packets received" 0
scalar AODV30_TnT.S5.app[0] packetReceived:count 0
attr interpolationmode none
attr source packetReceived
attr title "packets received, count"
scalar AODV30_TnT.S5.app[0] packetReceived:sum(packetBytes) 0
attr interpolationmode none
attr source packetReceived
attr title "packets received, sum(packetBytes)"
statistic AODV30_TnT.S5.app[0] rcvdPkLifetime:stats
field count 0
field mean -nan
field stddev nan
field min nan
field max nan
field sum 0
field sqrsum 0
attr interpolationmode none
attr source dataAge(packetReceived)
attr title "received packet lifetime, stats"
attr unit s
scalar AODV30_TnT.S5.app[0] packetSent:count 12
attr interpolationmode none
attr source packetSent
attr title "packets sent, count"
scalar AODV30_TnT.S5.app[0] packetSent:sum(packetBytes) 6144
attr interpolationmode none
attr source packetSent
attr title "packets sent, sum(packetBytes)"
scalar AODV30_TnT.S1.lo[0].lo rcvdPkFromHl:count 0
attr interpolationmode none
attr source packetReceivedFromUpper
attr title "packets received from higher layer, count"
scalar AODV30_TnT.S1.lo[0].lo rcvdPkFromHl:sum(packetBytes) 0
attr interpolationmode none
attr source packetReceivedFromUpper
attr title "packets received from higher layer, sum(packetBytes)"
scalar AODV30_TnT.S1.lo[0].lo passedUpPk:count 0
attr interpolationmode none
attr source packetSentToUpper
attr title "packets passed to higher layer, count"
scalar AODV30_TnT.S1.lo[0].lo passedUpPk:sum(packetBytes) 0
attr interpolationmode none
attr source packetSentToUpper
attr title "packets passed to higher layer, sum(packetBytes)"
scalar AODV30_TnT.S1.wlan[0].mac.queue packetPopped:count 24
attr interpolationmode none
attr title "packet popped, count"
scalar AODV30_TnT.S1.wlan[0].mac.queue packetPopped:sum(packetBytes) 6560
attr interpolationmode none
attr title "packet popped, sum(packetBytes)"
statistic AODV30_TnT.S1.wlan[0].mac.queue queueingTime:histogram
field count 24
field mean 0.00164720721125
field stddev 0.0071190984019676
field min 0
field max 0.034931476344
field sum 0.03953297307
field sqrsum 0.0012307949256317
attr interpolationmode none
attr source queueingTime(packetPopped)
attr title "queueing times, histogram"
attr unit s
bin	-inf	0
bin	0	21
bin	0.0005	0
bin	0.001	0
bin	0.0015	0
bin	0.002	2
bin	0.0025	0
bin	0.003	0
bin	0.0035	0
bin	0.004	0
bin	0.0045	0
bin	0.005	0
bin	0.0055	0
bin	0.006	0
bin	0.0065	0
bin	0.007	0
bin	0.0075	0
bin	0.008	0
bin	0.0085	0
bin	0.009	0
bin	0.0095	0
bin	0.01	0
bin	0.0105	0
bin	0.011	0
bin	0.0115	0
bin	0.012	0
bin	0.0125	0
bin	0.013	0
bin	0.0135	0
bin	0.014	0
bin	0.0145	0
bin	0.015	0
bin	0.0155	0
bin	0.016	0
bin	0.0165	0
bin	0.017	0
bin	0.0175	0
bin	0.018	0
bin	0.0185	0
bin	0.019	0
bin	0.0195	0
bin	0.02	0
bin	0.0205	0
bin	0.021	0
bin	0.0215	0
bin	0.022	0
bin	0.0225	0
bin	0.023	0
bin	0.0235	0
bin	0.024	0
bin	0.0245	0
bin	0.025	0
bin	0.0255	0
bin	0.026	0
bin	0.0265	0
bin	0.027	0
bin	0.0275	0
bin	0.028	0
bin	0.0285	0
bin	0.029	0
bin	0.0295	0
bin	0.03	0
bin	0.0305	0
bin	0.031	0
bin	0.0315	0
bin	0.032	0
bin	0.0325	0
bin	0.033	0
bin	0.0335	0
bin	0.034	0
bin	0.0345	1
bin	0.035	0
bin	0.0355	0
bin	0.036	0
bin	0.0365	0
bin	0.037	0
bin	0.0375	0
bin	0.038	0
bin	0.0385	0
bin	0.039	0
bin	0.0395	0
bin	0.04	0
bin	0.0405	0
bin	0.041	0
bin	0.0415	0
bin	0.042	0
bin	0.0425	0
bin	0.043	0
bin	0.0435	0
bin	0.044	0
scalar AODV30_TnT.S1.wlan[0].mac.queue queueLength:max 1
attr interpolationmode sample-hold
attr source "count(packetPushed) - count(packetPopped) - count(packetRemoved) - count(packetDropped)"
attr title "queue length, max"
scalar AODV30_TnT.S1.wlan[0].mac.queue queueLength:timeavg 0.014377833982664
attr interpolationmode sample-hold
attr source "count(packetPushed) - count(packetPopped) - count(packetRemoved) - count(packetDropped)"
attr title "queue length, timeavg"
scalar AODV30_TnT.S1.wlan[0].mac.queue packetPushed:count 24
attr interpolationmode none
attr title "packet pushed, count"
scalar AODV30_TnT.S1.wlan[0].mac.queue packetPushed:sum(packetBytes) 6560
attr interpolationmode none
attr title "packet pushed, sum(packetBytes)"
scalar AODV30_TnT.S1.wlan[0].mac.queue packetDropQueueOverflow:count 0
attr interpolationmode none
attr source packetDropReasonIsQueueOverflow(packetDropped)
attr title "packet drops: queue overflow, count"
scalar AODV30_TnT.S1.wlan[0].mac.queue packetDropQueueOverflow:sum(packetBytes) 0
attr interpolationmode none
attr source packetDropReasonIsQueueOverflow(packetDropped)
attr title "packet drops: queue overflow, sum(packetBytes)"
scalar AODV30_TnT.S1.wlan[0].mac.queue packetRemoved:count 0
attr interpolationmode none
attr title "packets removed, count"
scalar AODV30_TnT.S1.wlan[0].mac.queue packetRemoved:sum(packetBytes) 0
attr interpolationmode none
attr title "packets removed, sum(packetBytes)"
scalar AODV30_TnT.S1.wlan[0].mac rcvdPkFromLl:count 52
attr interpolationmode none
attr source packetReceivedFromLower
attr title "packets received from lower layer, count"
scalar AODV30_TnT.S1.wlan[0].mac rcvdPkFromLl:sum(packetBytes) 7956
attr interpolationmode none
attr source packetReceivedFromLower
attr title "packets received from lower layer, sum(packetBytes)"
scalar AODV30_TnT.S1.wlan[0].mac sentDownPk:count 24
attr interpolationmode none
attr source packetSentToLower
attr title "packets sent to lower layer, count"
scalar AODV30_TnT.S1.wlan[0].mac sentDownPk:sum(packetBytes) 7112
attr interpolationmode none
attr source packetSentToLower
attr title "packets sent to lower layer, sum(packetBytes)"
scalar AODV30_TnT.S1.wlan[0].mac rcvdPkFromHl:count 24
attr interpolationmode none
attr source packetReceivedFromUpper
attr title "packets received from higher layer, count"
scalar AODV30_TnT.S1.wlan[0].mac rcvdPkFromHl:sum(packetBytes) 6560
attr interpolationmode none
attr source packetReceivedFromUpper
attr title "packets received from higher layer, sum(packetBytes)"
scalar AODV30_TnT.S1.wlan[0].mac passedUpPk:count 37
attr interpolationmode none
attr source packetSentToUpper
attr title "packets passed to higher layer, count"
scalar AODV30_TnT.S1.wlan[0].mac passedUpPk:sum(packetBytes) 1692
attr interpolationmode none
attr source packetSentToUpper
attr title "packets passed to higher layer, sum(packetBytes)"
scalar AODV30_TnT.S1.wlan[0].mac packetDropIncorrectlyReceived:count 0
attr interpolationmode none
attr source packetDropReasonIsIncorrectlyReceived(packetDropped)
attr title "packet drop: incorrectly received, count"
scalar AODV30_TnT.S1.wlan[0].mac packetDropIncorrectlyReceived:sum(packetBytes) 0
attr interpolationmode none
attr source packetDropReasonIsIncorrectlyReceived(packetDropped)
attr title "packet drop: incorrectly received, sum(packetBytes)"
scalar AODV30_TnT.S1.wlan[0].mac packetDropInterfaceDown:count 0
attr interpolationmode none
attr source packetDropReasonIsInterfaceDown(packetDropped)
attr title "packet drop: interface down, count"
scalar AODV30_TnT.S1.wlan[0].mac packetDropInterfaceDown:sum(packetBytes) 0
attr interpolationmode none
attr source packetDropReasonIsInterfaceDown(packetDropped)
attr title "packet drop: interface down, sum(packetBytes)"
scalar AODV30_TnT.S1.wlan[0].mac packetDropNotAddressedToUs:count 15
attr interpolationmode none
attr source packetDropReasonIsNotAddressedToUs(packetDropped)
attr title "packet drop: not addressed to us, count"
scalar AODV30_TnT.S1.wlan[0].mac packetDropNotAddressedToUs:sum(packetBytes) 5413
attr interpolationmode none
attr source packetDropReasonIsNotAddressedToUs(packetDropped)
attr title "packet drop: not addressed to us, sum(packetBytes)"
scalar AODV30_TnT.S1.wlan[0].mac linkBroken:count 2
attr interpolationmode none
attr source linkBroken
attr title "link break, count"
scalar AODV30_TnT.S1.wlan[0].radio radioMode:count 3
attr interpolationmode sample-hold
attr source radioModeChanged
attr title "Radio mode, count"
scalar AODV30_TnT.S1.wlan[0].radio receptionState:count 111
attr interpolationmode sample-hold
attr source receptionStateChanged
attr title "Radio reception state, count"
scalar AODV30_TnT.S1.wlan[0].radio transmissionState:count 49
attr interpolationmode sample-hold
attr source transmissionStateChanged
attr title "Radio transmission state, count"
statistic AODV30_TnT.S1.wlan[0].radio minSnir:histogram
field count 0
field mean -nan
field stddev nan
field min nan
field max nan
field sum 0
field sqrsum 0
attr source minimumSnir(packetSentToUpper)
attr title "Min SNIR, histogram"
bin	-inf	0
bin	0	0
bin	1	0
statistic AODV30_TnT.S1.wlan[0].radio packetErrorRate:histogram
field count 52
field mean 0.17307692307692
field stddev 0.38200471438184
field min 0
field max 1
field sum 9
field sqrsum 9
attr source packetErrorRate(packetSentToUpper)
attr title "Packet error rate, histogram"
bin	-inf	0
bin	0	43
bin	1	9
bin	2	0
statistic AODV30_TnT.S1.wlan[0].radio bitErrorRate:histogram
field count 52
field mean 0.17307692307692
field stddev 0.38200471438184
field min 0
field max 1
field sum 9
field sqrsum 9
attr source bitErrorRate(packetSentToUpper)
attr title "Bit error rate, histogram"
bin	-inf	0
bin	0	43
bin	1	9
bin	2	0
statistic AODV30_TnT.S1.wlan[0].radio symbolErrorRate:histogram
field count 52
field mean 0.17307692307692
field stddev 0.38200471438184
field min 0
field max 1
field sum 9
field sqrsum 9
attr source symbolErrorRate(packetSentToUpper)
attr title "Symbol error rate, histogram"
bin	-inf	0
bin	0	43
bin	1	9
bin	2	0
scalar AODV30_TnT.S1.ipv4.ip packetDropAddressResolutionFailed:count 0
attr interpolationmode none
attr source packetDropReasonIsAddressResolutionFailed(packetDropped)
attr title "packet drop: address resolution failed, count"
scalar AODV30_TnT.S1.ipv4.ip packetDropAddressResolutionFailed:sum(packetBytes) 0
attr interpolationmode none
attr source packetDropReasonIsAddressResolutionFailed(packetDropped)
attr title "packet drop: address resolution failed, sum(packetBytes)"
scalar AODV30_TnT.S1.ipv4.ip packetDropHopLimitReached:count 0
attr interpolationmode none
attr source packetDropReasonIsHopLimitReached(packetDropped)
attr title "packet drop: hop limit reached, count"
scalar AODV30_TnT.S1.ipv4.ip packetDropHopLimitReached:sum(packetBytes) 0
attr interpolationmode none
attr source packetDropReasonIsHopLimitReached(packetDropped)
attr title "packet drop: hop limit reached, sum(packetBytes)"
scalar AODV30_TnT.S1.ipv4.ip packetDropForwardingDisabled:count 0
attr interpolationmode none
attr source packetDropReasonIsForwardingDisabled(packetDropped)
attr title "packet drop: forwarding disabled, count"
scalar AODV30_TnT.S1.ipv4.ip packetDropForwardingDisabled:sum(packetBytes) 0
attr interpolationmode none
attr source packetDropReasonIsForwardingDisabled(packetDropped)
attr title "packet drop: forwarding disabled, sum(packetBytes)"
scalar AODV30_TnT.S1.ipv4.ip packetDropNoInterfaceFound:count 0
attr interpolationmode none
attr source packetDropReasonIsNoInterfaceFound(packetDropped)
attr title "packet drop: no interface found, count"
scalar AODV30_TnT.S1.ipv4.ip packetDropNoInterfaceFound:sum(packetBytes) 0
attr interpolationmode none
attr source packetDropReasonIsNoInterfaceFound(packetDropped)
attr title "packet drop: no interface found, sum(packetBytes)"
scalar AODV30_TnT.S1.ipv4.ip packetDropNoRouteFound:count 0
attr interpolationmode none
attr source packetDropReasonIsNoRouteFound(packetDropped)
attr title "packet drop: no route found, count"
scalar AODV30_TnT.S1.ipv4.ip packetDropNoRouteFound:sum(packetBytes) 0
attr interpolationmode none
attr source packetDropReasonIsNoRouteFound(packetDropped)
attr title "packet drop: no route found, sum(packetBytes)"
scalar AODV30_TnT.S1.ipv4.ip packetDropUndefined:count 0
attr interpolationmode none
attr source packetDropReasonIsUndefined(packetDropped)
attr title "packet drop: undefined, count"
scalar AODV30_TnT.S1.ipv4.ip packetDropUndefined:sum(packetBytes) 0
attr interpolationmode none
attr source packetDropReasonIsUndefined(packetDropped)
attr title "packet drop: undefined, sum(packetBytes)"
scalar AODV30_TnT.S1.ipv4.arp arpResolutionFailed:count 0
attr title "ARP failed resolutions, count"
scalar AODV30_TnT.S1.ipv4.arp arpResolutionCompleted:count 8
attr title "ARP completed resolutions, count"
scalar AODV30_TnT.S1.ipv4.arp arpResolutionInitiated:count 0
attr title "ARP initiated resolutions, count"
scalar AODV30_TnT.S1.ipv4.arp arpReplySent:count 3
attr source arpReplySent
attr title "ARP replies sent, count"
scalar AODV30_TnT.S1.ipv4.arp arpReplySent:sum(packetBytes) 84
attr source arpReplySent
attr title "ARP replies sent, sum(packetBytes)"
scalar AODV30_TnT.S1.ipv4.arp arpRequestSent:count 0
attr source arpRequestSent
attr title "ARP request sent, count"
scalar AODV30_TnT.S1.ipv4.arp arpRequestSent:sum(packetBytes) 0
attr source arpRequestSent
attr title "ARP request sent, sum(packetBytes)"
scalar AODV30_TnT.S1.udp packetReceived:count 28
attr interpolationmode none
attr source packetReceived
attr title "packets received, count"
scalar AODV30_TnT.S1.udp packetReceived:sum(packetBytes) 880
attr interpolationmode none
attr source packetReceived
attr title "packets received, sum(packetBytes)"
scalar AODV30_TnT.S1.udp packetSent:count 22
attr interpolationmode none
attr source packetSent
attr title "packets sent, count"
scalar AODV30_TnT.S1.udp packetSent:sum(packetBytes) 6576
attr interpolationmode none
attr source packetSent
attr title "packets sent, sum(packetBytes)"
scalar AODV30_TnT.S1.udp passedUpPk:count 28
attr interpolationmode none
attr source packetSentToUpper
attr title "packets passed up, count"
scalar AODV30_TnT.S1.udp droppedPkWrongPort:count 0
attr interpolationmode none
attr source packetDropReasonIsNoPortFound(packetDropped)
attr title "packets dropped (wrong port), count"
scalar AODV30_TnT.S1.udp droppedPkBadChecksum:count 0
attr interpolationmode none
attr source packetDropReasonIsIncorrectlyReceived(packetDropped)
attr title "packets dropped (checksum error), count"
scalar AODV30_TnT.S1.app[0] "packets sent" 12
scalar AODV30_TnT.S1.app[0] "packets received" 0
scalar AODV30_TnT.S1.app[0] packetReceived:count 0
attr interpolationmode none
attr source packetReceived
attr title "packets received, count"
scalar AODV30_TnT.S1.app[0] packetReceived:sum(packetBytes) 0
attr interpolationmode none
attr source packetReceived
attr title "packets received, sum(packetBytes)"
statistic AODV30_TnT.S1.app[0] rcvdPkLifetime:stats
field count 0
field mean -nan
field stddev nan
field min nan
field max nan
field sum 0
field sqrsum 0
attr interpolationmode none
attr source dataAge(packetReceived)
attr title "received packet lifetime, stats"
attr unit s
scalar AODV30_TnT.S1.app[0] packetSent:count 12
attr interpolationmode none
attr source packetSent
attr title "packets sent, count"
scalar AODV30_TnT.S1.app[0] packetSent:sum(packetBytes) 6144
attr interpolationmode none
attr source packetSent
attr title "packets sent, sum(packetBytes)"
scalar AODV30_TnT.S2.lo[0].lo rcvdPkFromHl:count 0
attr interpolationmode none
attr source packetReceivedFromUpper
attr title "packets received from higher layer, count"
scalar AODV30_TnT.S2.lo[0].lo rcvdPkFromHl:sum(packetBytes) 0
attr interpolationmode none
attr source packetReceivedFromUpper
attr title "packets received from higher layer, sum(packetBytes)"
scalar AODV30_TnT.S2.lo[0].lo passedUpPk:count 0
attr interpolationmode none
attr source packetSentToUpper
attr title "packets passed to higher layer, count"
scalar AODV30_TnT.S2.lo[0].lo passedUpPk:sum(packetBytes) 0
attr interpolationmode none
attr source packetSentToUpper
attr title "packets passed to higher layer, sum(packetBytes)"
scalar AODV30_TnT.S2.wlan[0].mac.queue packetPopped:count 27
attr interpolationmode none
attr title "packet popped, count"
scalar AODV30_TnT.S2.wlan[0].mac.queue packetPopped:sum(packetBytes) 6688
attr interpolationmode none
attr title "packet popped, sum(packetBytes)"
statistic AODV30_TnT.S2.wlan[0].mac.queue queueingTime:histogram
field count 27
field mean 0.0036588027314815
field stddev 0.018998448438256
field min 0
field max 0.09872136209
field sum 0.09878767375
field sqrsum 0.0097459117301411
attr interpolationmode none
attr source queueingTime(packetPopped)
attr title "queueing times, histogram"
attr unit s
bin	-inf	0
bin	0	26
bin	0.002	0
bin	0.004	0
bin	0.006	0
bin	0.008	0
bin	0.01	0
bin	0.012	0
bin	0.014	0
bin	0.016	0
bin	0.018	0
bin	0.02	0
bin	0.022	0
bin	0.024	0
bin	0.026	0
bin	0.028	0
bin	0.03	0
bin	0.032	0
bin	0.034	0
bin	0.036	0
bin	0.038	0
bin	0.04	0
bin	0.042	0
bin	0.044	0
bin	0.046	0
bin	0.048	0
bin	0.05	0
bin	0.052	0
bin	0.054	0
bin	0.056	0
bin	0.058	0
bin	0.06	0
bin	0.062	0
bin	0.064	0
bin	0.066	0
bin	0.068	0
bin	0.07	0
bin	0.072	0
bin	0.074	0
bin	0.076	0
bin	0.078	0
bin	0.08	0
bin	0.082	0
bin	0.084	0
bin	0.086	0
bin	0.088	0
bin	0.09	0
bin	0.092	0
bin	0.094	0
bin	0.096	0
bin	0.098	1
bin	0.1	0
bin	0.102	0
bin	0.104	0
bin	0.106	0
bin	0.108	0
bin	0.11	0
bin	0.112	0
bin	0.114	0
bin	0.116	0
bin	0.118	0
bin	0.12	0
bin	0.122	0
bin	0.124	0
scalar AODV30_TnT.S2.wlan[0].mac.queue queueLength:max 1
attr interpolationmode sample-hold
attr source "count(packetPushed) - count(packetPopped) - count(packetRemoved) - count(packetDropped)"
attr title "queue length, max"
scalar AODV30_TnT.S2.wlan[0].mac.queue queueLength:timeavg 0.03594438791698
attr interpolationmode sample-hold
attr source "count(packetPushed) - count(packetPopped) - count(packetRemoved) - count(packetDropped)"
attr title "queue length, timeavg"
scalar AODV30_TnT.S2.wlan[0].mac.queue packetPushed:count 27
attr interpolationmode none
attr title "packet pushed, count"
scalar AODV30_TnT.S2.wlan[0].mac.queue packetPushed:sum(packetBytes) 6688
attr interpolationmode none
attr title "packet pushed, sum(packetBytes)"
scalar AODV30_TnT.S2.wlan[0].mac.queue packetDropQueueOverflow:count 0
attr interpolationmode none
attr source packetDropReasonIsQueueOverflow(packetDropped)
attr title "packet drops: queue overflow, count"
scalar AODV30_TnT.S2.wlan[0].mac.queue packetDropQueueOverflow:sum(packetBytes) 0
attr interpolationmode none
attr source packetDropReasonIsQueueOverflow(packetDropped)
attr title "packet drops: queue overflow, sum(packetBytes)"
scalar AODV30_TnT.S2.wlan[0].mac.queue packetRemoved:count 0
attr interpolationmode none
attr title "packets removed, count"
scalar AODV30_TnT.S2.wlan[0].mac.queue packetRemoved:sum(packetBytes) 0
attr interpolationmode none
attr title "packets removed, sum(packetBytes)"
scalar AODV30_TnT.S2.wlan[0].mac rcvdPkFromLl:count 112
attr interpolationmode none
attr source packetReceivedFromLower
attr title "packets received from lower layer, count"
scalar AODV30_TnT.S2.wlan[0].mac rcvdPkFromLl:sum(packetBytes) 21416
attr interpolationmode none
attr source packetReceivedFromLower
attr title "packets received from lower layer, sum(packetBytes)"
scalar AODV30_TnT.S2.wlan[0].mac sentDownPk:count 27
attr interpolationmode none
attr source packetSentToLower
attr title "packets sent to lower layer, count"
scalar AODV30_TnT.S2.wlan[0].mac sentDownPk:sum(packetBytes) 7309
attr interpolationmode none
attr source packetSentToLower
attr title "packets sent to lower layer, sum(packetBytes)"
scalar AODV30_TnT.S2.wlan[0].mac rcvdPkFromHl:count 27
attr interpolationmode none
attr source packetReceivedFromUpper
attr title "packets received from higher layer, count"
scalar AODV30_TnT.S2.wlan[0].mac rcvdPkFromHl:sum(packetBytes) 6688
attr interpolationmode none
attr source packetReceivedFromUpper
attr title "packets received from higher layer, sum(packetBytes)"
scalar AODV30_TnT.S2.wlan[0].mac passedUpPk:count 63
attr interpolationmode none
attr source packetSentToUpper
attr title "packets passed to higher layer, count"
scalar AODV30_TnT.S2.wlan[0].mac passedUpPk:sum(packetBytes) 2952
attr interpolationmode none
attr source packetSentToUpper
attr title "packets passed to higher layer, sum(packetBytes)"
scalar AODV30_TnT.S2.wlan[0].mac packetDropIncorrectlyReceived:count 0
attr interpolationmode none
attr source packetDropReasonIsIncorrectlyReceived(packetDropped)
attr title "packet drop: incorrectly received, count"
scalar AODV30_TnT.S2.wlan[0].mac packetDropIncorrectlyReceived:sum(packetBytes) 0
attr interpolationmode none
attr source packetDropReasonIsIncorrectlyReceived(packetDropped)
attr title "packet drop: incorrectly received, sum(packetBytes)"
scalar AODV30_TnT.S2.wlan[0].mac packetDropInterfaceDown:count 0
attr interpolationmode none
attr source packetDropReasonIsInterfaceDown(packetDropped)
attr title "packet drop: interface down, count"
scalar AODV30_TnT.S2.wlan[0].mac packetDropInterfaceDown:sum(packetBytes) 0
attr interpolationmode none
attr source packetDropReasonIsInterfaceDown(packetDropped)
attr title "packet drop: interface down, sum(packetBytes)"
scalar AODV30_TnT.S2.wlan[0].mac packetDropNotAddressedToUs:count 49
attr interpolationmode none
attr source packetDropReasonIsNotAddressedToUs(packetDropped)
attr title "packet drop: not addressed to us, count"
scalar AODV30_TnT.S2.wlan[0].mac packetDropNotAddressedToUs:sum(packetBytes) 17015
attr interpolationmode none
attr source packetDropReasonIsNotAddressedToUs(packetDropped)
attr title "packet drop: not addressed to us, sum(packetBytes)"
scalar AODV30_TnT.S2.wlan[0].mac linkBroken:count 1
attr interpolationmode none
attr source linkBroken
attr title "link break, count"
scalar AODV30_TnT.S2.wlan[0].radio radioMode:count 3
attr interpolationmode sample-hold
attr source radioModeChanged
attr title "Radio mode, count"
scalar AODV30_TnT.S2.wlan[0].radio receptionState:count 244
attr interpolationmode sample-hold
attr source receptionStateChanged
attr title "Radio reception state, count"
scalar AODV30_TnT.S2.wlan[0].radio transmissionState:count 55
attr interpolationmode sample-hold
attr source transmissionStateChanged
attr title "Radio transmission state, count"
statistic AODV30_TnT.S2.wlan[0].radio minSnir:histogram
field count 0
field mean -nan
field stddev nan
field min nan
field max nan
field sum 0
field sqrsum 0
attr source minimumSnir(packetSentToUpper)
attr title "Min SNIR, histogram"
bin	-inf	0
bin	0	0
bin	1	0
statistic AODV30_TnT.S2.wlan[0].radio packetErrorRate:histogram
field count 112
field mean 0.21428571428571
field stddev 0.41217007397938
field min 0
field max 1
field sum 24
field sqrsum 24
attr source packetErrorRate(packetSentToUpper)
attr title "Packet error rate, histogram"
bin	-inf	0
bin	0	88
bin	1	24
bin	2	0
statistic AODV30_TnT.S2.wlan[0].radio bitErrorRate:histogram
field count 112
field mean 0.21428571428571
field stddev 0.41217007397938
field min 0
field max 1
field sum 24
field sqrsum 24
attr source bitErrorRate(packetSentToUpper)
attr title "Bit error rate, histogram"
bin	-inf	0
bin	0	88
bin	1	24
bin	2	0
statistic AODV30_TnT.S2.wlan[0].radio symbolErrorRate:histogram
field count 112
field mean 0.21428571428571
field stddev 0.41217007397938
field min 0
field max 1
field sum 24
field sqrsum 24
attr source symbolErrorRate(packetSentToUpper)
attr title "Symbol error rate, histogram"
bin	-inf	0
bin	0	88
bin	1	24
bin	2	0
scalar AODV30_TnT.S2.ipv4.ip packetDropAddressResolutionFailed:count 0
attr interpolationmode none
attr source packetDropReasonIsAddressResolutionFailed(packetDropped)
attr title "packet drop: address resolution failed, count"
scalar AODV30_TnT.S2.ipv4.ip packetDropAddressResolutionFailed:sum(packetBytes) 0
attr interpolationmode none
attr source packetDropReasonIsAddressResolutionFailed(packetDropped)
attr title "packet drop: address resolution failed, sum(packetBytes)"
scalar AODV30_TnT.S2.ipv4.ip packetDropHopLimitReached:count 0
attr interpolationmode none
attr source packetDropReasonIsHopLimitReached(packetDropped)
attr title "packet drop: hop limit reached, count"
scalar AODV30_TnT.S2.ipv4.ip packetDropHopLimitReached:sum(packetBytes) 0
attr interpolationmode none
attr source packetDropReasonIsHopLimitReached(packetDropped)
attr title "packet drop: hop limit reached, sum(packetBytes)"
scalar AODV30_TnT.S2.ipv4.ip packetDropForwardingDisabled:count 0
attr interpolationmode none
attr source packetDropReasonIsForwardingDisabled(packetDropped)
attr title "packet drop: forwarding disabled, count"
scalar AODV30_TnT.S2.ipv4.ip packetDropForwardingDisabled:sum(packetBytes) 0
attr interpolationmode none
attr source packetDropReasonIsForwardingDisabled(packetDropped)
attr title "packet drop: forwarding disabled, sum(packetBytes)"
scalar AODV30_TnT.S2.ipv4.ip packetDropNoInterfaceFound:count 0
attr interpolationmode none
attr source packetDropReasonIsNoInterfaceFound(packetDropped)
attr title "packet drop: no interface found, count"
scalar AODV30_TnT.S2.ipv4.ip packetDropNoInterfaceFound:sum(packetBytes) 0
attr interpolationmode none
attr source packetDropReasonIsNoInterfaceFound(packetDropped)
attr title "packet drop: no interface found, sum(packetBytes)"
scalar AODV30_TnT.S2.ipv4.ip packetDropNoRouteFound:count 0
attr interpolationmode none
attr source packetDropReasonIsNoRouteFound(packetDropped)
attr title "packet drop: no route found, count"
scalar AODV30_TnT.S2.ipv4.ip packetDropNoRouteFound:sum(packetBytes) 0
attr interpolationmode none
attr source packetDropReasonIsNoRouteFound(packetDropped)
attr title "packet drop: no route found, sum(packetBytes)"
scalar AODV30_TnT.S2.ipv4.ip packetDropUndefined:count 0
attr interpolationmode none
attr source packetDropReasonIsUndefined(packetDropped)
attr title "packet drop: undefined, count"
scalar AODV30_TnT.S2.ipv4.ip packetDropUndefined:sum(packetBytes) 0
attr interpolationmode none
attr source packetDropReasonIsUndefined(packetDropped)
attr title "packet drop: undefined, sum(packetBytes)"
scalar AODV30_TnT.S2.ipv4.arp arpResolutionFailed:count 0
attr title "ARP failed resolutions, count"
scalar AODV30_TnT.S2.ipv4.arp arpResolutionCompleted:count 8
attr title "ARP completed resolutions, count"
scalar AODV30_TnT.S2.ipv4.arp arpResolutionInitiated:count 2
attr title "ARP initiated resolutions, count"
scalar AODV30_TnT.S2.ipv4.arp arpReplySent:count 1
attr source arpReplySent
attr title "ARP replies sent, count"
scalar AODV30_TnT.S2.ipv4.arp arpReplySent:sum(packetBytes) 28
attr source arpReplySent
attr title "ARP replies sent, sum(packetBytes)"
scalar AODV30_TnT.S2.ipv4.arp arpRequestSent:count 2
attr source arpRequestSent
attr title "ARP request sent, count"
scalar AODV30_TnT.S2.ipv4.arp arpRequestSent:sum(packetBytes) 56
attr source arpRequestSent
attr title "ARP request sent, sum(packetBytes)"
scalar AODV30_TnT.S2.udp packetReceived:count 50
attr interpolationmode none
attr source packetReceived
attr title "packets received, count"
scalar AODV30_TnT.S2.udp packetReceived:sum(packetBytes) 1588
attr interpolationmode none
attr source packetReceived
attr title "packets received, sum(packetBytes)"
scalar AODV30_TnT.S2.udp packetSent:count 25
attr interpolationmode none
attr source packetSent
attr title "packets sent, count"
scalar AODV30_TnT.S2.udp packetSent:sum(packetBytes) 6644
attr interpolationmode none
attr source packetSent
attr title "packets sent, sum(packetBytes)"
scalar AODV30_TnT.S2.udp passedUpPk:count 50
attr interpolationmode none
attr source packetSentToUpper
attr title "packets passed up, count"
scalar AODV30_TnT.S2.udp droppedPkWrongPort:count 0
attr interpolationmode none
attr source packetDropReasonIsNoPortFound(packetDropped)
attr title "packets dropped (wrong port), count"
scalar AODV30_TnT.S2.udp droppedPkBadChecksum:count 0
attr interpolationmode none
attr source packetDropReasonIsIncorrectlyReceived(packetDropped)
attr title "packets dropped (checksum error), count"
scalar AODV30_TnT.S2.app[0] "packets sent" 12
scalar AODV30_TnT.S2.app[0] "packets received" 0
scalar AODV30_TnT.S2.app[0] packetReceived:count 0
attr interpolationmode none
attr source packetReceived
attr title "packets received, count"
scalar AODV30_TnT.S2.app[0] packetReceived:sum(packetBytes) 0
attr interpolationmode none
attr source packetReceived
attr title "packets received, sum(packetBytes)"
statistic AODV30_TnT.S2.app[0] rcvdPkLifetime:stats
field count 0
field mean -nan
field stddev nan
field min nan
field max nan
field sum 0
field sqrsum 0
attr interpolationmode none
attr source dataAge(packetReceived)
attr title "received packet lifetime, stats"
attr unit s
scalar AODV30_TnT.S2.app[0] packetSent:count 12
attr interpolationmode none
attr source packetSent
attr title "packets sent, count"
scalar AODV30_TnT.S2.app[0] packetSent:sum(packetBytes) 6144
attr interpolationmode none
attr source packetSent
attr title "packets sent, sum(packetBytes)"
scalar AODV30_TnT.S3.lo[0].lo rcvdPkFromHl:count 0
attr interpolationmode none
attr source packetReceivedFromUpper
attr title "packets received from higher layer, count"
scalar AODV30_TnT.S3.lo[0].lo rcvdPkFromHl:sum(packetBytes) 0
attr interpolationmode none
attr source packetReceivedFromUpper
attr title "packets received from higher layer, sum(packetBytes)"
scalar AODV30_TnT.S3.lo[0].lo passedUpPk:count 0
attr interpolationmode none
attr source packetSentToUpper
attr title "packets passed to higher layer, count"
scalar AODV30_TnT.S3.lo[0].lo passedUpPk:sum(packetBytes) 0
attr interpolationmode none
attr source packetSentToUpper
attr title "packets passed to higher layer, sum(packetBytes)"
scalar AODV30_TnT.S3.wlan[0].mac.queue packetPopped:count 25
attr interpolationmode none
attr title "packet popped, count"
scalar AODV30_TnT.S3.wlan[0].mac.queue packetPopped:sum(packetBytes) 7036
attr interpolationmode none
attr title "packet popped, sum(packetBytes)"
statistic AODV30_TnT.S3.wlan[0].mac.queue queueingTime:histogram
field count 25
field mean 0.0051689255956
field stddev 0.020254280496636
field min 0
field max 0.09848721292
field sum 0.12922313989
field sqrsum 0.010513605877795
attr interpolationmode none
attr source queueingTime(packetPopped)
attr title "queueing times, histogram"
attr unit s
bin	-inf	0
bin	0	22
bin	0.002	1
bin	0.004	0
bin	0.006	0
bin	0.008	0
bin	0.01	0
bin	0.012	0
bin	0.014	0
bin	0.016	0
bin	0.018	0
bin	0.02	0
bin	0.022	0
bin	0.024	0
bin	0.026	0
bin	0.028	1
bin	0.03	0
bin	0.032	0
bin	0.034	0
bin	0.036	0
bin	0.038	0
bin	0.04	0
bin	0.042	0
bin	0.044	0
bin	0.046	0
bin	0.048	0
bin	0.05	0
bin	0.052	0
bin	0.054	0
bin	0.056	0
bin	0.058	0
bin	0.06	0
bin	0.062	0
bin	0.064	0
bin	0.066	0
bin	0.068	0
bin	0.07	0
bin	0.072	0
bin	0.074	0
bin	0.076	0
bin	0.078	0
bin	0.08	0
bin	0.082	0
bin	0.084	0
bin	0.086	0
bin	0.088	0
bin	0.09	0
bin	0.092	0
bin	0.094	0
bin	0.096	0
bin	0.098	1
bin	0.1	0
bin	0.102	0
bin	0.104	0
bin	0.106	0
bin	0.108	0
bin	0.11	0
bin	0.112	0
bin	0.114	0
bin	0.116	0
bin	0.118	0
bin	0.12	0
bin	0.122	0
bin	0.124	0
scalar AODV30_TnT.S3.wlan[0].mac.queue queueLength:max 1
attr interpolationmode sample-hold
attr source "count(packetPushed) - count(packetPopped) - count(packetRemoved) - count(packetDropped)"
attr title "queue length, max"
scalar AODV30_TnT.S3.wlan[0].mac.queue queueLength:timeavg 0.046987089888736
attr interpolationmode sample-hold
attr source "count(packetPushed) - count(packetPopped) - count(packetRemoved) - count(packetDropped)"
attr title "queue length, timeavg"
scalar AODV30_TnT.S3.wlan[0].mac.queue packetPushed:count 25
attr interpolationmode none
attr title "packet pushed, count"
scalar AODV30_TnT.S3.wlan[0].mac.queue packetPushed:sum(packetBytes) 7036
attr interpolationmode none
attr title "packet pushed, sum(packetBytes)"
scalar AODV30_TnT.S3.wlan[0].mac.queue packetDropQueueOverflow:count 0
attr interpolationmode none
attr source packetDropReasonIsQueueOverflow(packetDropped)
attr title "packet drops: queue overflow, count"
scalar AODV30_TnT.S3.wlan[0].mac.queue packetDropQueueOverflow:sum(packetBytes) 0
attr interpolationmode none
attr source packetDropReasonIsQueueOverflow(packetDropped)
attr title "packet drops: queue overflow, sum(packetBytes)"
scalar AODV30_TnT.S3.wlan[0].mac.queue packetRemoved:count 0
attr interpolationmode none
attr title "packets removed, count"
scalar AODV30_TnT.S3.wlan[0].mac.queue packetRemoved:sum(packetBytes) 0
attr interpolationmode none
attr title "packets removed, sum(packetBytes)"
scalar AODV30_TnT.S3.wlan[0].mac rcvdPkFromLl:count 120
attr interpolationmode none
attr source packetReceivedFromLower
attr title "packets received from lower layer, count"
scalar AODV30_TnT.S3.wlan[0].mac rcvdPkFromLl:sum(packetBytes) 24468
attr interpolationmode none
attr source packetReceivedFromLower
attr title "packets received from lower layer, sum(packetBytes)"
scalar AODV30_TnT.S3.wlan[0].mac sentDownPk:count 25
attr interpolationmode none
attr source packetSentToLower
attr title "packets sent to lower layer, count"
scalar AODV30_TnT.S3.wlan[0].mac sentDownPk:sum(packetBytes) 7611
attr interpolationmode none
attr source packetSentToLower
attr title "packets sent to lower layer, sum(packetBytes)"
scalar AODV30_TnT.S3.wlan[0].mac rcvdPkFromHl:count 25
attr interpolationmode none
attr source packetReceivedFromUpper
attr title "packets received from higher layer, count"
scalar AODV30_TnT.S3.wlan[0].mac rcvdPkFromHl:sum(packetBytes) 7036
attr interpolationmode none
attr source packetReceivedFromUpper
attr title "packets received from higher layer, sum(packetBytes)"
scalar AODV30_TnT.S3.wlan[0].mac passedUpPk:count 70
attr interpolationmode none
attr source packetSentToUpper
attr title "packets passed to higher layer, count"
scalar AODV30_TnT.S3.wlan[0].mac passedUpPk:sum(packetBytes) 3272
attr interpolationmode none
attr source packetSentToUpper
attr title "packets passed to higher layer, sum(packetBytes)"
scalar AODV30_TnT.S3.wlan[0].mac packetDropIncorrectlyReceived:count 0
attr interpolationmode none
attr source packetDropReasonIsIncorrectlyReceived(packetDropped)
attr title "packet drop: incorrectly received, count"
scalar AODV30_TnT.S3.wlan[0].mac packetDropIncorrectlyReceived:sum(packetBytes) 0
attr interpolationmode none
attr source packetDropReasonIsIncorrectlyReceived(packetDropped)
attr title "packet drop: incorrectly received, sum(packetBytes)"
scalar AODV30_TnT.S3.wlan[0].mac packetDropInterfaceDown:count 0
attr interpolationmode none
attr source packetDropReasonIsInterfaceDown(packetDropped)
attr title "packet drop: interface down, count"
scalar AODV30_TnT.S3.wlan[0].mac packetDropInterfaceDown:sum(packetBytes) 0
attr interpolationmode none
attr source packetDropReasonIsInterfaceDown(packetDropped)
attr title "packet drop: interface down, sum(packetBytes)"
scalar AODV30_TnT.S3.wlan[0].mac packetDropNotAddressedToUs:count 50
attr interpolationmode none
attr source packetDropReasonIsNotAddressedToUs(packetDropped)
attr title "packet drop: not addressed to us, count"
scalar AODV30_TnT.S3.wlan[0].mac packetDropNotAddressedToUs:sum(packetBytes) 19586
attr interpolationmode none
attr source packetDropReasonIsNotAddressedToUs(packetDropped)
attr title "packet drop: not addressed to us, sum(packetBytes)"
scalar AODV30_TnT.S3.wlan[0].mac linkBroken:count 2
attr interpolationmode none
attr source linkBroken
attr title "link break, count"
scalar AODV30_TnT.S3.wlan[0].radio radioMode:count 3
attr interpolationmode sample-hold
attr source radioModeChanged
attr title "Radio mode, count"
scalar AODV30_TnT.S3.wlan[0].radio receptionState:count 259
attr interpolationmode sample-hold
attr source receptionStateChanged
attr title "Radio reception state, count"
scalar AODV30_TnT.S3.wlan[0].radio transmissionState:count 51
attr interpolationmode sample-hold
attr source transmissionStateChanged
attr title "Radio transmission state, count"
statistic AODV30_TnT.S3.wlan[0].radio minSnir:histogram
field count 0
field mean -nan
field stddev nan
field min nan
field max nan
field sum 0
field sqrsum 0
attr source minimumSnir(packetSentToUpper)
attr title "Min SNIR, histogram"
bin	-inf	0
bin	0	0
bin	1	0
statistic AODV30_TnT.S3.wlan[0].radio packetErrorRate:histogram
field count 120
field mean 0.24166666666667
field stddev 0.42988826637701
field min 0
field max 1
field sum 29
field sqrsum 29
attr source packetErrorRate(packetSentToUpper)
attr title "Packet error rate, histogram"
bin	-inf	0
bin	0	91
bin	1	29
bin	2	0
statistic AODV30_TnT.S3.wlan[0].radio bitErrorRate:histogram
field count 120
field mean 0.24166666666667
field stddev 0.42988826637701
field min 0
field max 1
field sum 29
field sqrsum 29
attr source bitErrorRate(packetSentToUpper)
attr title "Bit error rate, histogram"
bin	-inf	0
bin	0	91
bin	1	29
bin	2	0
statistic AODV30_TnT.S3.wlan[0].radio symbolErrorRate:histogram
field count 120
field mean 0.24166666666667
field stddev 0.42988826637701
field min 0
field max 1
field sum 29
field sqrsum 29
attr source symbolErrorRate(packetSentToUpper)
attr title "Symbol error rate, histogram"
bin	-inf	0
bin	0	91
bin	1	29
bin	2	0
scalar AODV30_TnT.S3.ipv4.ip packetDropAddressResolutionFailed:count 0
attr interpolationmode none
attr source packetDropReasonIsAddressResolutionFailed(packetDropped)
attr title "packet drop: address resolution failed, count"
scalar AODV30_TnT.S3.ipv4.ip packetDropAddressResolutionFailed:sum(packetBytes) 0
attr interpolationmode none
attr source packetDropReasonIsAddressResolutionFailed(packetDropped)
attr title "packet drop: address resolution failed, sum(packetBytes)"
scalar AODV30_TnT.S3.ipv4.ip packetDropHopLimitReached:count 0
attr interpolationmode none
attr source packetDropReasonIsHopLimitReached(packetDropped)
attr title "packet drop: hop limit reached, count"
scalar AODV30_TnT.S3.ipv4.ip packetDropHopLimitReached:sum(packetBytes) 0
attr interpolationmode none
attr source packetDropReasonIsHopLimitReached(packetDropped)
attr title "packet drop: hop limit reached, sum(packetBytes)"
scalar AODV30_TnT.S3.ipv4.ip packetDropForwardingDisabled:count 0
attr interpolationmode none
attr source packetDropReasonIsForwardingDisabled(packetDropped)
attr title "packet drop: forwarding disabled, count"
scalar AODV30_TnT.S3.ipv4.ip packetDropForwardingDisabled:sum(packetBytes) 0
attr interpolationmode none
attr source packetDropReasonIsForwardingDisabled(packetDropped)
attr title "packet drop: forwarding disabled, sum(packetBytes)"
scalar AODV30_TnT.S3.ipv4.ip packetDropNoInterfaceFound:count 0
attr interpolationmode none
attr source packetDropReasonIsNoInterfaceFound(packetDropped)
attr title "packet drop: no interface found, count"
scalar AODV30_TnT.S3.ipv4.ip packetDropNoInterfaceFound:sum(packetBytes) 0
attr interpolationmode none
attr source packetDropReasonIsNoInterfaceFound(packetDropped)
attr title "packet drop: no interface found, sum(packetBytes)"
scalar AODV30_TnT.S3.ipv4.ip packetDropNoRouteFound:count 0
attr interpolationmode none
attr source packetDropReasonIsNoRouteFound(packetDropped)
attr title "packet drop: no route found, count"
scalar AODV30_TnT.S3.ipv4.ip packetDropNoRouteFound:sum(packetBytes) 0
attr interpolationmode none
attr source packetDropReasonIsNoRouteFound(packetDropped)
attr title "packet drop: no route found, sum(packetBytes)"
scalar AODV30_TnT.S3.ipv4.ip packetDropUndefined:count 0
attr interpolationmode none
attr source packetDropReasonIsUndefined(packetDropped)
attr title "packet drop: undefined, count"
scalar AODV30_TnT.S3.ipv4.ip packetDropUndefined:sum(packetBytes) 0
attr interpolationmode none
attr source packetDropReasonIsUndefined(packetDropped)
attr title "packet drop: undefined, sum(packetBytes)"
scalar AODV30_TnT.S3.ipv4.arp arpResolutionFailed:count 0
attr title "ARP failed resolutions, count"
scalar AODV30_TnT.S3.ipv4.arp arpResolutionCompleted:count 7
attr title "ARP completed resolutions, count"
scalar AODV30_TnT.S3.ipv4.arp arpResolutionInitiated:count 0
attr title "ARP initiated resolutions, count"
scalar AODV30_TnT.S3.ipv4.arp arpReplySent:count 5
attr source arpReplySent
attr title "ARP replies sent, count"
scalar AODV30_TnT.S3.ipv4.arp arpReplySent:sum(packetBytes) 140
attr source arpReplySent
attr title "ARP replies sent, sum(packetBytes)"
scalar AODV30_TnT.S3.ipv4.arp arpRequestSent:count 0
attr source arpRequestSent
attr title "ARP request sent, count"
scalar AODV30_TnT.S3.ipv4.arp arpRequestSent:sum(packetBytes) 0
attr source arpRequestSent
attr title "ARP request sent, sum(packetBytes)"
scalar AODV30_TnT.S3.udp packetReceived:count 56
attr interpolationmode none
attr source packetReceived
attr title "packets received, count"
scalar AODV30_TnT.S3.udp packetReceived:sum(packetBytes) 1760
attr interpolationmode none
attr source packetReceived
attr title "packets received, sum(packetBytes)"
scalar AODV30_TnT.S3.udp packetSent:count 20
attr interpolationmode none
attr source packetSent
attr title "packets sent, count"
scalar AODV30_TnT.S3.udp packetSent:sum(packetBytes) 6496
attr interpolationmode none
attr source packetSent
attr title "packets sent, sum(packetBytes)"
scalar AODV30_TnT.S3.udp passedUpPk:count 56
attr interpolationmode none
attr source packetSentToUpper
attr title "packets passed up, count"
scalar AODV30_TnT.S3.udp droppedPkWrongPort:count 0
attr interpolationmode none
attr source packetDropReasonIsNoPortFound(packetDropped)
attr title "packets dropped (wrong port), count"
scalar AODV30_TnT.S3.udp droppedPkBadChecksum:count 0
attr interpolationmode none
attr source packetDropReasonIsIncorrectlyReceived(packetDropped)
attr title "packets dropped (checksum error), count"
scalar AODV30_TnT.S3.app[0] "packets sent" 12
scalar AODV30_TnT.S3.app[0] "packets received" 0
scalar AODV30_TnT.S3.app[0] packetReceived:count 0
attr interpolationmode none
attr source packetReceived
attr title "packets received, count"
scalar AODV30_TnT.S3.app[0] packetReceived:sum(packetBytes) 0
attr interpolationmode none
attr source packetReceived
attr title "packets received, sum(packetBytes)"
statistic AODV30_TnT.S3.app[0] rcvdPkLifetime:stats
field count 0
field mean -nan
field stddev nan
field min nan
field max nan
field sum 0
field sqrsum 0
attr interpolationmode none
attr source dataAge(packetReceived)
attr title "received packet lifetime, stats"
attr unit s
scalar AODV30_TnT.S3.app[0] packetSent:count 12
attr interpolationmode none
attr source packetSent
attr title "packets sent, count"
scalar AODV30_TnT.S3.app[0] packetSent:sum(packetBytes) 6144
attr interpolationmode none
attr source packetSent
attr title "packets sent, sum(packetBytes)"
scalar AODV30_TnT.S4.lo[0].lo rcvdPkFromHl:count 0
attr interpolationmode none
attr source packetReceivedFromUpper
attr title "packets received from higher layer, count"
scalar AODV30_TnT.S4.lo[0].lo rcvdPkFromHl:sum(packetBytes) 0
attr interpolationmode none
attr source packetReceivedFromUpper
attr title "packets received from higher layer, sum(packetBytes)"
scalar AODV30_TnT.S4.lo[0].lo passedUpPk:count 0
attr interpolationmode none
attr source packetSentToUpper
attr title "packets passed to higher layer, count"
scalar AODV30_TnT.S4.lo[0].lo passedUpPk:sum(packetBytes) 0
attr interpolationmode none
attr source packetSentToUpper
attr title "packets passed to higher layer, sum(packetBytes)"
scalar AODV30_TnT.S4.wlan[0].mac.queue packetPopped:count 22
attr interpolationmode none
attr title "packet popped, count"
scalar AODV30_TnT.S4.wlan[0].mac.queue packetPopped:sum(packetBytes) 6940
attr interpolationmode none
attr title "packet popped, sum(packetBytes)"
statistic AODV30_TnT.S4.wlan[0].mac.queue queueingTime:histogram
field count 22
field mean 0.0011502340532727
field stddev 0.0025349670318304
field min 0
field max 0.009201755072
field sum 0.025305149172
field sqrsum 0.00016405405920259
attr interpolationmode none
attr source queueingTime(packetPopped)
attr title "queueing times, histogram"
attr unit s
bin	-inf	0
bin	0	17
bin	0.0002	0
bin	0.0004	0
bin	0.0006	0
bin	0.0008	0
bin	0.001	0
bin	0.0012	0
bin	0.0014	0
bin	0.0016	0
bin	0.0018	0
bin	0.002	0
bin	0.0022	2
bin	0.0024	0
bin	0.0026	0
bin	0.0028	0
bin	0.003	0
bin	0.0032	0
bin	0.0034	0
bin	0.0036	0
bin	0.0038	0
bin	0.004	0
bin	0.0042	0
bin	0.0044	0
bin	0.0046	1
bin	0.0048	0
bin	0.005	0
bin	0.0052	0
bin	0.0054	0
bin	0.0056	0
bin	0.0058	0
bin	0.006	0
bin	0.0062	0
bin	0.0064	0
bin	0.0066	0
bin	0.0068	1
bin	0.007	0
bin	0.0072	0
bin	0.0074	0
bin	0.0076	0
bin	0.0078	0
bin	0.008	0
bin	0.0082	0
bin	0.0084	0
bin	0.0086	0
bin	0.0088	0
bin	0.009	0
bin	0.0092	1
bin	0.0094	0
bin	0.0096	0
bin	0.0098	0
bin	0.01	0
bin	0.0102	0
bin	0.0104	0
bin	0.0106	0
bin	0.0108	0
bin	0.011	0
bin	0.0112	0
bin	0.0114	0
bin	0.0116	0
scalar AODV30_TnT.S4.wlan[0].mac.queue queueLength:max 4
attr interpolationmode sample-hold
attr source "count(packetPushed) - count(packetPopped) - count(packetRemoved) - count(packetDropped)"
attr title "queue length, max"
scalar AODV30_TnT.S4.wlan[0].mac.queue queueLength:timeavg 0.0092046023667315
attr interpolationmode sample-hold
attr source "count(packetPushed) - count(packetPopped) - count(packetRemoved) - count(packetDropped)"
attr title "queue length, timeavg"
scalar AODV30_TnT.S4.wlan[0].mac.queue packetPushed:count 22
attr interpolationmode none
attr title "packet pushed, count"
scalar AODV30_TnT.S4.wlan[0].mac.queue packetPushed:sum(packetBytes) 6940
attr interpolationmode none
attr title "packet pushed, sum(packetBytes)"
scalar AODV30_TnT.S4.wlan[0].mac.queue packetDropQueueOverflow:count 0
attr interpolationmode none
attr source packetDropReasonIsQueueOverflow(packetDropped)
attr title "packet drops: queue overflow, count"
scalar AODV30_TnT.S4.wlan[0].mac.queue packetDropQueueOverflow:sum(packetBytes) 0
attr interpolationmode none
attr source packetDropReasonIsQueueOverflow(packetDropped)
attr title "packet drops: queue overflow, sum(packetBytes)"
scalar AODV30_TnT.S4.wlan[0].mac.queue packetRemoved:count 0
attr interpolationmode none
attr title "packets removed, count"
scalar AODV30_TnT.S4.wlan[0].mac.queue packetRemoved:sum(packetBytes) 0
attr interpolationmode none
attr title "packets removed, sum(packetBytes)"
scalar AODV30_TnT.S4.wlan[0].mac rcvdPkFromLl:count 52
attr interpolationmode none
attr source packetReceivedFromLower
attr title "packets received from lower layer, count"
scalar AODV30_TnT.S4.wlan[0].mac rcvdPkFromLl:sum(packetBytes) 10948
attr interpolationmode none
attr source packetReceivedFromLower
attr title "packets received from lower layer, sum(packetBytes)"
scalar AODV30_TnT.S4.wlan[0].mac sentDownPk:count 22
attr interpolationmode none
attr source packetSentToLower
attr title "packets sent to lower layer, count"
scalar AODV30_TnT.S4.wlan[0].mac sentDownPk:sum(packetBytes) 7446
attr interpolationmode none
attr source packetSentToLower
attr title "packets sent to lower layer, sum(packetBytes)"
scalar AODV30_TnT.S4.wlan[0].mac rcvdPkFromHl:count 22
attr interpolationmode none
attr source packetReceivedFromUpper
attr title "packets received from higher layer, count"
scalar AODV30_TnT.S4.wlan[0].mac rcvdPkFromHl:sum(packetBytes) 6940
attr interpolationmode none
attr source packetReceivedFromUpper
attr title "packets received from higher layer, sum(packetBytes)"
scalar AODV30_TnT.S4.wlan[0].mac passedUpPk:count 32
attr interpolationmode none
attr source packetSentToUpper
attr title "packets passed to higher layer, count"
scalar AODV30_TnT.S4.wlan[0].mac passedUpPk:sum(packetBytes) 1472
attr interpolationmode none
attr source packetSentToUpper
attr title "packets passed to higher layer, sum(packetBytes)"
scalar AODV30_TnT.S4.wlan[0].mac packetDropIncorrectlyReceived:count 0
attr interpolationmode none
attr source packetDropReasonIsIncorrectlyReceived(packetDropped)
attr title "packet drop: incorrectly received, count"
scalar AODV30_TnT.S4.wlan[0].mac packetDropIncorrectlyReceived:sum(packetBytes) 0
attr interpolationmode none
attr source packetDropReasonIsIncorrectlyReceived(packetDropped)
attr title "packet drop: incorrectly received, sum(packetBytes)"
scalar AODV30_TnT.S4.wlan[0].mac packetDropInterfaceDown:count 0
attr interpolationmode none
attr source packetDropReasonIsInterfaceDown(packetDropped)
attr title "packet drop: interface down, count"
scalar AODV30_TnT.S4.wlan[0].mac packetDropInterfaceDown:sum(packetBytes) 0
attr interpolationmode none
attr source packetDropReasonIsInterfaceDown(packetDropped)
attr title "packet drop: interface down, sum(packetBytes)"
scalar AODV30_TnT.S4.wlan[0].mac packetDropNotAddressedToUs:count 20
attr interpolationmode none
attr source packetDropReasonIsNotAddressedToUs(packetDropped)
attr title "packet drop: not addressed to us, count"
scalar AODV30_TnT.S4.wlan[0].mac packetDropNotAddressedToUs:sum(packetBytes) 8740
attr interpolationmode none
attr source packetDropReasonIsNotAddressedToUs(packetDropped)
attr title "packet drop: not addressed to us, sum(packetBytes)"
scalar AODV30_TnT.S4.wlan[0].mac linkBroken:count 1
attr interpolationmode none
attr source linkBroken
attr title "link break, count"
scalar AODV30_TnT.S4.wlan[0].radio radioMode:count 3
attr interpolationmode sample-hold
attr source radioModeChanged
attr title "Radio mode, count"
scalar AODV30_TnT.S4.wlan[0].radio receptionState:count 112
attr interpolationmode sample-hold
attr source receptionStateChanged
attr title "Radio reception state, count"
scalar AODV30_TnT.S4.wlan[0].radio transmissionState:count 45
attr interpolationmode sample-hold
attr source transmissionStateChanged
attr title "Radio transmission state, count"
statistic AODV30_TnT.S4.wlan[0].radio minSnir:histogram
field count 0
field mean -nan
field stddev nan
field min nan
field max nan
field sum 0
field sqrsum 0
attr source minimumSnir(packetSentToUpper)
attr title "Min SNIR, histogram"
bin	-inf	0
bin	0	0
bin	1	0
statistic AODV30_TnT.S4.wlan[0].radio packetErrorRate:histogram
field count 52
field mean 0.15384615384615
field stddev 0.36432130747865
field min 0
field max 1
field sum 8
field sqrsum 8
attr source packetErrorRate(packetSentToUpper)
attr title "Packet error rate, histogram"
bin	-inf	0
bin	0	44
bin	1	8
bin	2	0
statistic AODV30_TnT.S4.wlan[0].radio bitErrorRate:histogram
field count 52
field mean 0.15384615384615
field stddev 0.36432130747865
field min 0
field max 1
field sum 8
field sqrsum 8
attr source bitErrorRate(packetSentToUpper)
[...]
attr title "packet drop: incorrectly received, count"
scalar AODV30_TnT.H29.wlan[0].mac packetDropIncorrectlyReceived:sum(packetBytes) 0
attr interpolationmode none
attr source packetDropReasonIsIncorrectlyReceived(packetDropped)
attr title "packet drop: incorrectly received, sum(packetBytes)"
scalar AODV30_TnT.H29.wlan[0].mac packetDropInterfaceDown:count 0
attr interpolationmode none
attr source packetDropReasonIsInterfaceDown(packetDropped)
attr title "packet drop: interface down, count"
scalar AODV30_TnT.H29.wlan[0].mac packetDropInterfaceDown:sum(packetBytes) 0
attr interpolationmode none
attr source packetDropReasonIsInterfaceDown(packetDropped)
attr title "packet drop: interface down, sum(packetBytes)"
scalar AODV30_TnT.H29.wlan[0].mac packetDropNotAddressedToUs:count 19
attr interpolationmode none
attr source packetDropReasonIsNotAddressedToUs(packetDropped)
attr title "packet drop: not addressed to us, count"
scalar AODV30_TnT.H29.wlan[0].mac packetDropNotAddressedToUs:sum(packetBytes) 7153
attr interpolationmode none
attr source packetDropReasonIsNotAddressedToUs(packetDropped)
attr title "packet drop: not addressed to us, sum(packetBytes)"
scalar AODV30_TnT.H29.wlan[0].mac linkBroken:count 0
attr interpolationmode none
attr source linkBroken
attr title "link break, count"
scalar AODV30_TnT.H29.wlan[0].radio radioMode:count 3
attr interpolationmode sample-hold
attr source radioModeChanged
attr title "Radio mode, count"
scalar AODV30_TnT.H29.wlan[0].radio receptionState:count 110
attr interpolationmode sample-hold
attr source receptionStateChanged
attr title "Radio reception state, count"
scalar AODV30_TnT.H29.wlan[0].radio transmissionState:count 17
attr interpolationmode sample-hold
attr source transmissionStateChanged
attr title "Radio transmission state, count"
statistic AODV30_TnT.H29.wlan[0].radio minSnir:histogram
field count 0
field mean -nan
field stddev nan
field min nan
field max nan
field sum 0
field sqrsum 0
attr source minimumSnir(packetSentToUpper)
attr title "Min SNIR, histogram"
bin	-inf	0
bin	0	0
bin	1	0
statistic AODV30_TnT.H29.wlan[0].radio packetErrorRate:histogram
field count 54
field mean 0.018518518518519
field stddev 0.13608276348795
field min 0
field max 1
field sum 1
field sqrsum 1
attr source packetErrorRate(packetSentToUpper)
attr title "Packet error rate, histogram"
bin	-inf	0
bin	0	53
bin	1	1
bin	2	0
statistic AODV30_TnT.H29.wlan[0].radio bitErrorRate:histogram
field count 54
field mean 0.018518518518519
field stddev 0.13608276348795
field min 0
field max 1
field sum 1
field sqrsum 1
attr source bitErrorRate(packetSentToUpper)
attr title "Bit error rate, histogram"
bin	-inf	0
bin	0	53
bin	1	1
bin	2	0
statistic AODV30_TnT.H29.wlan[0].radio symbolErrorRate:histogram
field count 54
field mean 0.018518518518519
field stddev 0.13608276348795
field min 0
field max 1
field sum 1
field sqrsum 1
attr source symbolErrorRate(packetSentToUpper)
attr title "Symbol error rate, histogram"
bin	-inf	0
bin	0	53
bin	1	1
bin	2	0
scalar AODV30_TnT.H29.ipv4.ip packetDropAddressResolutionFailed:count 0
attr interpolationmode none
attr source packetDropReasonIsAddressResolutionFailed(packetDropped)
attr title "packet drop: address resolution failed, count"
scalar AODV30_TnT.H29.ipv4.ip packetDropAddressResolutionFailed:sum(packetBytes) 0
attr interpolationmode none
attr source packetDropReasonIsAddressResolutionFailed(packetDropped)
attr title "packet drop: address resolution failed, sum(packetBytes)"
scalar AODV30_TnT.H29.ipv4.ip packetDropHopLimitReached:count 0
attr interpolationmode none
attr source packetDropReasonIsHopLimitReached(packetDropped)
attr title "packet drop: hop limit reached, count"
scalar AODV30_TnT.H29.ipv4.ip packetDropHopLimitReached:sum(packetBytes) 0
attr interpolationmode none
attr source packetDropReasonIsHopLimitReached(packetDropped)
attr title "packet drop: hop limit reached, sum(packetBytes)"
scalar AODV30_TnT.H29.ipv4.ip packetDropForwardingDisabled:count 0
attr interpolationmode none
attr source packetDropReasonIsForwardingDisabled(packetDropped)
attr title "packet drop: forwarding disabled, count"
scalar AODV30_TnT.H29.ipv4.ip packetDropForwardingDisabled:sum(packetBytes) 0
attr interpolationmode none
attr source packetDropReasonIsForwardingDisabled(packetDropped)
attr title "packet drop: forwarding disabled, sum(packetBytes)"
scalar AODV30_TnT.H29.ipv4.ip packetDropNoInterfaceFound:count 0
attr interpolationmode none
attr source packetDropReasonIsNoInterfaceFound(packetDropped)
attr title "packet drop: no interface found, count"
scalar AODV30_TnT.H29.ipv4.ip packetDropNoInterfaceFound:sum(packetBytes) 0
attr interpolationmode none
attr source packetDropReasonIsNoInterfaceFound(packetDropped)
attr title "packet drop: no interface found, sum(packetBytes)"
scalar AODV30_TnT.H29.ipv4.ip packetDropNoRouteFound:count 0
attr interpolationmode none
attr source packetDropReasonIsNoRouteFound(packetDropped)
attr title "packet drop: no route found, count"
scalar AODV30_TnT.H29.ipv4.ip packetDropNoRouteFound:sum(packetBytes) 0
attr interpolationmode none
attr source packetDropReasonIsNoRouteFound(packetDropped)
attr title "packet drop: no route found, sum(packetBytes)"
scalar AODV30_TnT.H29.ipv4.ip packetDropUndefined:count 0
attr interpolationmode none
attr source packetDropReasonIsUndefined(packetDropped)
attr title "packet drop: undefined, count"
scalar AODV30_TnT.H29.ipv4.ip packetDropUndefined:sum(packetBytes) 0
attr interpolationmode none
attr source packetDropReasonIsUndefined(packetDropped)
attr title "packet drop: undefined, sum(packetBytes)"
scalar AODV30_TnT.H29.ipv4.arp arpResolutionFailed:count 0
attr title "ARP failed resolutions, count"
scalar AODV30_TnT.H29.ipv4.arp arpResolutionCompleted:count 0
attr title "ARP completed resolutions, count"
scalar AODV30_TnT.H29.ipv4.arp arpResolutionInitiated:count 0
attr title "ARP initiated resolutions, count"
scalar AODV30_TnT.H29.ipv4.arp arpReplySent:count 0
attr source arpReplySent
attr title "ARP replies sent, count"
scalar AODV30_TnT.H29.ipv4.arp arpReplySent:sum(packetBytes) 0
attr source arpReplySent
attr title "ARP replies sent, sum(packetBytes)"
scalar AODV30_TnT.H29.ipv4.arp arpRequestSent:count 0
attr source arpRequestSent
attr title "ARP request sent, count"
scalar AODV30_TnT.H29.ipv4.arp arpRequestSent:sum(packetBytes) 0
attr source arpRequestSent
attr title "ARP request sent, sum(packetBytes)"
scalar AODV30_TnT.H29.udp packetReceived:count 31
attr interpolationmode none
attr source packetReceived
attr title "packets received, count"
scalar AODV30_TnT.H29.udp packetReceived:sum(packetBytes) 1004
attr interpolationmode none
attr source packetReceived
attr title "packets received, sum(packetBytes)"
scalar AODV30_TnT.H29.udp packetSent:count 8
attr interpolationmode none
attr source packetSent
attr title "packets sent, count"
scalar AODV30_TnT.H29.udp packetSent:sum(packetBytes) 256
attr interpolationmode none
attr source packetSent
attr title "packets sent, sum(packetBytes)"
scalar AODV30_TnT.H29.udp passedUpPk:count 31
attr interpolationmode none
attr source packetSentToUpper
attr title "packets passed up, count"
scalar AODV30_TnT.H29.udp droppedPkWrongPort:count 0
attr interpolationmode none
attr source packetDropReasonIsNoPortFound(packetDropped)
attr title "packets dropped (wrong port), count"
scalar AODV30_TnT.H29.udp droppedPkBadChecksum:count 0
attr interpolationmode none
attr source packetDropReasonIsIncorrectlyReceived(packetDropped)
attr title "packets dropped (checksum error), count"
scalar AODV30_TnT.H30.lo[0].lo rcvdPkFromHl:count 0
attr interpolationmode none
attr source packetReceivedFromUpper
attr title "packets received from higher layer, count"
scalar AODV30_TnT.H30.lo[0].lo rcvdPkFromHl:sum(packetBytes) 0
attr interpolationmode none
attr source packetReceivedFromUpper
attr title "packets received from higher layer, sum(packetBytes)"
scalar AODV30_TnT.H30.lo[0].lo passedUpPk:count 0
attr interpolationmode none
attr source packetSentToUpper
attr title "packets passed to higher layer, count"
scalar AODV30_TnT.H30.lo[0].lo passedUpPk:sum(packetBytes) 0
attr interpolationmode none
attr source packetSentToUpper
attr title "packets passed to higher layer, sum(packetBytes)"
scalar AODV30_TnT.H30.wlan[0].mac.queue packetPopped:count 9
attr interpolationmode none
attr title "packet popped, count"
scalar AODV30_TnT.H30.wlan[0].mac.queue packetPopped:sum(packetBytes) 468
attr interpolationmode none
attr title "packet popped, sum(packetBytes)"
statistic AODV30_TnT.H30.wlan[0].mac.queue queueingTime:histogram
field count 9
field mean 0
field stddev 0
field min 0
field max 0
field sum 0
field sqrsum 0
attr interpolationmode none
attr source queueingTime(packetPopped)
attr title "queueing times, histogram"
attr unit s
bin	-inf	0
bin	-0.5	0
bin	-0.48	0
bin	-0.46	0
bin	-0.44	0
bin	-0.42	0
bin	-0.4	0
bin	-0.38	0
bin	-0.36	0
bin	-0.34	0
bin	-0.32	0
bin	-0.3	0
bin	-0.28	0
bin	-0.26	0
bin	-0.24	0
bin	-0.22	0
bin	-0.2	0
bin	-0.18	0
bin	-0.16	0
bin	-0.14	0
bin	-0.12	0
bin	-0.1	0
bin	-0.08	0
bin	-0.06	0
bin	-0.04	0
bin	-0.02	0
bin	0	9
bin	0.02	0
bin	0.04	0
bin	0.06	0
bin	0.08	0
bin	0.1	0
bin	0.12	0
bin	0.14	0
bin	0.16	0
bin	0.18	0
bin	0.2	0
bin	0.22	0
bin	0.24	0
bin	0.26	0
bin	0.28	0
bin	0.3	0
bin	0.32	0
bin	0.34	0
bin	0.36	0
bin	0.38	0
bin	0.4	0
bin	0.42	0
bin	0.44	0
bin	0.46	0
bin	0.48	0
bin	0.5	0
scalar AODV30_TnT.H30.wlan[0].mac.queue queueLength:max 1
attr interpolationmode sample-hold
attr source "count(packetPushed) - count(packetPopped) - count(packetRemoved) - count(packetDropped)"
attr title "queue length, max"
scalar AODV30_TnT.H30.wlan[0].mac.queue queueLength:timeavg 0
attr interpolationmode sample-hold
attr source "count(packetPushed) - count(packetPopped) - count(packetRemoved) - count(packetDropped)"
attr title "queue length, timeavg"
scalar AODV30_TnT.H30.wlan[0].mac.queue packetPushed:count 9
attr interpolationmode none
attr title "packet pushed, count"
scalar AODV30_TnT.H30.wlan[0].mac.queue packetPushed:sum(packetBytes) 468
attr interpolationmode none
attr title "packet pushed, sum(packetBytes)"
scalar AODV30_TnT.H30.wlan[0].mac.queue packetDropQueueOverflow:count 0
attr interpolationmode none
attr source packetDropReasonIsQueueOverflow(packetDropped)
attr title "packet drops: queue overflow, count"
scalar AODV30_TnT.H30.wlan[0].mac.queue packetDropQueueOverflow:sum(packetBytes) 0
attr interpolationmode none
attr source packetDropReasonIsQueueOverflow(packetDropped)
attr title "packet drops: queue overflow, sum(packetBytes)"
scalar AODV30_TnT.H30.wlan[0].mac.queue packetRemoved:count 0
attr interpolationmode none
attr title "packets removed, count"
scalar AODV30_TnT.H30.wlan[0].mac.queue packetRemoved:sum(packetBytes) 0
attr interpolationmode none
attr title "packets removed, sum(packetBytes)"
scalar AODV30_TnT.H30.wlan[0].mac rcvdPkFromLl:count 168
attr interpolationmode none
attr source packetReceivedFromLower
attr title "packets received from lower layer, count"
scalar AODV30_TnT.H30.wlan[0].mac rcvdPkFromLl:sum(packetBytes) 31524
attr interpolationmode none
attr source packetReceivedFromLower
attr title "packets received from lower layer, sum(packetBytes)"
scalar AODV30_TnT.H30.wlan[0].mac sentDownPk:count 9
attr interpolationmode none
attr source packetSentToLower
attr title "packets sent to lower layer, count"
scalar AODV30_TnT.H30.wlan[0].mac sentDownPk:sum(packetBytes) 675
attr interpolationmode none
attr source packetSentToLower
attr title "packets sent to lower layer, sum(packetBytes)"
scalar AODV30_TnT.H30.wlan[0].mac rcvdPkFromHl:count 9
attr interpolationmode none
attr source packetReceivedFromUpper
attr title "packets received from higher layer, count"
scalar AODV30_TnT.H30.wlan[0].mac rcvdPkFromHl:sum(packetBytes) 468
attr interpolationmode none
attr source packetReceivedFromUpper
attr title "packets received from higher layer, sum(packetBytes)"
scalar AODV30_TnT.H30.wlan[0].mac passedUpPk:count 84
attr interpolationmode none
attr source packetSentToUpper
attr title "packets passed to higher layer, count"
scalar AODV30_TnT.H30.wlan[0].mac passedUpPk:sum(packetBytes) 3856
attr interpolationmode none
attr source packetSentToUpper
attr title "packets passed to higher layer, sum(packetBytes)"
scalar AODV30_TnT.H30.wlan[0].mac packetDropIncorrectlyReceived:count 0
attr interpolationmode none
attr source packetDropReasonIsIncorrectlyReceived(packetDropped)
attr title "packet drop: incorrectly received, count"
scalar AODV30_TnT.H30.wlan[0].mac packetDropIncorrectlyReceived:sum(packetBytes) 0
attr interpolationmode none
attr source packetDropReasonIsIncorrectlyReceived(packetDropped)
attr title "packet drop: incorrectly received, sum(packetBytes)"
scalar AODV30_TnT.H30.wlan[0].mac packetDropInterfaceDown:count 0
attr interpolationmode none
attr source packetDropReasonIsInterfaceDown(packetDropped)
attr title "packet drop: interface down, count"
scalar AODV30_TnT.H30.wlan[0].mac packetDropInterfaceDown:sum(packetBytes) 0
attr interpolationmode none
attr source packetDropReasonIsInterfaceDown(packetDropped)
attr title "packet drop: interface down, sum(packetBytes)"
scalar AODV30_TnT.H30.wlan[0].mac packetDropNotAddressedToUs:count 84
attr interpolationmode none
attr source packetDropReasonIsNotAddressedToUs(packetDropped)
attr title "packet drop: not addressed to us, count"
scalar AODV30_TnT.H30.wlan[0].mac packetDropNotAddressedToUs:sum(packetBytes) 25736
attr interpolationmode none
attr source packetDropReasonIsNotAddressedToUs(packetDropped)
attr title "packet drop: not addressed to us, sum(packetBytes)"
scalar AODV30_TnT.H30.wlan[0].mac linkBroken:count 0
attr interpolationmode none
attr source linkBroken
attr title "link break, count"
scalar AODV30_TnT.H30.wlan[0].radio radioMode:count 3
attr interpolationmode sample-hold
attr source radioModeChanged
attr title "Radio mode, count"
scalar AODV30_TnT.H30.wlan[0].radio receptionState:count 367
attr interpolationmode sample-hold
attr source receptionStateChanged
attr title "Radio reception state, count"
scalar AODV30_TnT.H30.wlan[0].radio transmissionState:count 19
attr interpolationmode sample-hold
attr source transmissionStateChanged
attr title "Radio transmission state, count"
statistic AODV30_TnT.H30.wlan[0].radio minSnir:histogram
field count 0
field mean -nan
field stddev nan
field min nan
field max nan
field sum 0
field sqrsum 0
attr source minimumSnir(packetSentToUpper)
attr title "Min SNIR, histogram"
bin	-inf	0
bin	0	0
bin	1	0
statistic AODV30_TnT.H30.wlan[0].radio packetErrorRate:histogram
field count 168
field mean 0.28571428571429
field stddev 0.4531044894476
field min 0
field max 1
field sum 48
field sqrsum 48
attr source packetErrorRate(packetSentToUpper)
attr title "Packet error rate, histogram"
bin	-inf	0
bin	0	120
bin	1	48
bin	2	0
statistic AODV30_TnT.H30.wlan[0].radio bitErrorRate:histogram
field count 168
field mean 0.28571428571429
field stddev 0.4531044894476
field min 0
field max 1
field sum 48
field sqrsum 48
attr source bitErrorRate(packetSentToUpper)
attr title "Bit error rate, histogram"
bin	-inf	0
bin	0	120
bin	1	48
bin	2	0
statistic AODV30_TnT.H30.wlan[0].radio symbolErrorRate:histogram
field count 168
field mean 0.28571428571429
field stddev 0.4531044894476
field min 0
field max 1
field sum 48
field sqrsum 48
attr source symbolErrorRate(packetSentToUpper)
attr title "Symbol error rate, histogram"
bin	-inf	0
bin	0	120
bin	1	48
bin	2	0
scalar AODV30_TnT.H30.ipv4.ip packetDropAddressResolutionFailed:count 0
attr interpolationmode none
attr source packetDropReasonIsAddressResolutionFailed(packetDropped)
attr title "packet drop: address resolution failed, count"
scalar AODV30_TnT.H30.ipv4.ip packetDropAddressResolutionFailed:sum(packetBytes) 0
attr interpolationmode none
attr source packetDropReasonIsAddressResolutionFailed(packetDropped)
attr title "packet drop: address resolution failed, sum(packetBytes)"
scalar AODV30_TnT.H30.ipv4.ip packetDropHopLimitReached:count 0
attr interpolationmode none
attr source packetDropReasonIsHopLimitReached(packetDropped)
attr title "packet drop: hop limit reached, count"
scalar AODV30_TnT.H30.ipv4.ip packetDropHopLimitReached:sum(packetBytes) 0
attr interpolationmode none
attr source packetDropReasonIsHopLimitReached(packetDropped)
attr title "packet drop: hop limit reached, sum(packetBytes)"
scalar AODV30_TnT.H30.ipv4.ip packetDropForwardingDisabled:count 0
attr interpolationmode none
attr source packetDropReasonIsForwardingDisabled(packetDropped)
attr title "packet drop: forwarding disabled, count"
scalar AODV30_TnT.H30.ipv4.ip packetDropForwardingDisabled:sum(packetBytes) 0
attr interpolationmode none
attr source packetDropReasonIsForwardingDisabled(packetDropped)
attr title "packet drop: forwarding disabled, sum(packetBytes)"
scalar AODV30_TnT.H30.ipv4.ip packetDropNoInterfaceFound:count 0
attr interpolationmode none
attr source packetDropReasonIsNoInterfaceFound(packetDropped)
attr title "packet drop: no interface found, count"
scalar AODV30_TnT.H30.ipv4.ip packetDropNoInterfaceFound:sum(packetBytes) 0
attr interpolationmode none
attr source packetDropReasonIsNoInterfaceFound(packetDropped)
attr title "packet drop: no interface found, sum(packetBytes)"
scalar AODV30_TnT.H30.ipv4.ip packetDropNoRouteFound:count 0
attr interpolationmode none
attr source packetDropReasonIsNoRouteFound(packetDropped)
attr title "packet drop: no route found, count"
scalar AODV30_TnT.H30.ipv4.ip packetDropNoRouteFound:sum(packetBytes) 0
attr interpolationmode none
attr source packetDropReasonIsNoRouteFound(packetDropped)
attr title "packet drop: no route found, sum(packetBytes)"
scalar AODV30_TnT.H30.ipv4.ip packetDropUndefined:count 0
attr interpolationmode none
attr source packetDropReasonIsUndefined(packetDropped)
attr title "packet drop: undefined, count"
scalar AODV30_TnT.H30.ipv4.ip packetDropUndefined:sum(packetBytes) 0
attr interpolationmode none
attr source packetDropReasonIsUndefined(packetDropped)
attr title "packet drop: undefined, sum(packetBytes)"
scalar AODV30_TnT.H30.ipv4.arp arpResolutionFailed:count 0
attr title "ARP failed resolutions, count"
scalar AODV30_TnT.H30.ipv4.arp arpResolutionCompleted:count 0
attr title "ARP completed resolutions, count"
scalar AODV30_TnT.H30.ipv4.arp arpResolutionInitiated:count 0
attr title "ARP initiated resolutions, count"
scalar AODV30_TnT.H30.ipv4.arp arpReplySent:count 0
attr source arpReplySent
attr title "ARP replies sent, count"
scalar AODV30_TnT.H30.ipv4.arp arpReplySent:sum(packetBytes) 0
attr source arpReplySent
attr title "ARP replies sent, sum(packetBytes)"
scalar AODV30_TnT.H30.ipv4.arp arpRequestSent:count 0
attr source arpRequestSent
attr title "ARP request sent, count"
scalar AODV30_TnT.H30.ipv4.arp arpRequestSent:sum(packetBytes) 0
attr source arpRequestSent
attr title "ARP request sent, sum(packetBytes)"
scalar AODV30_TnT.H30.udp packetReceived:count 64
attr interpolationmode none
attr source packetReceived
attr title "packets received, count"
scalar AODV30_TnT.H30.udp packetReceived:sum(packetBytes) 2016
attr interpolationmode none
attr source packetReceived
attr title "packets received, sum(packetBytes)"
scalar AODV30_TnT.H30.udp packetSent:count 9
attr interpolationmode none
attr source packetSent
attr title "packets sent, count"
scalar AODV30_TnT.H30.udp packetSent:sum(packetBytes) 288
attr interpolationmode none
attr source packetSent
attr title "packets sent, sum(packetBytes)"
scalar AODV30_TnT.H30.udp passedUpPk:count 64
attr interpolationmode none
attr source packetSentToUpper
attr title "packets passed up, count"
scalar AODV30_TnT.H30.udp droppedPkWrongPort:count 0
attr interpolationmode none
attr source packetDropReasonIsNoPortFound(packetDropped)
attr title "packets dropped (wrong port), count"
scalar AODV30_TnT.H30.udp droppedPkBadChecksum:count 0
attr interpolationmode none
attr source packetDropReasonIsIncorrectlyReceived(packetDropped)
attr title "packets dropped (checksum error), count"

