file 18499 1618564884                                           
version 2
run twoBH_AODV20_Mobility_0mps-0-20210416-16:20:33-2830
attr configname twoBH_AODV20_Mobility_0mps
attr datetime 20210416-16:20:33
attr experiment twoBH_AODV20_Mobility_0mps
attr inifile AODV20_2bh.ini
attr iterationvars ""
attr iterationvarsf ""
attr measurement ""
attr network AODV20_2bh
attr processid 2830
attr repetition 0
attr replication #0
attr resultdir results
attr runnumber 0
attr seedset 0
param **.H*.mobility.typename "\"MassMobility\""
param **.S*.mobility.typename "\"MassMobility\""
param **.BH*.mobility.typename "\"MassMobility\""
param **.*.mobility.changeInterval "normal(5s, 0.1s)"
param **.*.mobility.angleDelta "normal(0deg, 30deg)"
param **.*.mobility.speed "normal(0mps, 0.01mps)"
param **.wlan[*].typename "\"AckingWirelessInterface\""
param **.wlan[*].bitrate 2Mbps
param **.wlan[*].mac.headerLength 23B
param **.wlan[*].radio.typename "\"UnitDiskRadio\""
param **.wlan[*].radio.transmitter.headerLength 96b
param **.wlan[*].radio.transmitter.communicationRange 250m
param **.wlan[*].radio.transmitter.interferenceRange 0m
param **.wlan[*].radio.transmitter.detectionRange 0m
param **.wlan[*].radio.receiver.ignoreInterference true
param **.host[*].mobility.typename "\"StationaryMobility\""
param **.mobility.constraintAreaMinZ 0m
param **.mobility.constraintAreaMaxZ 0m
param **.mobility.constraintAreaMinX 10m
param **.mobility.constraintAreaMinY 10m
param **.mobility.constraintAreaMaxX 1000m
param **.mobility.constraintAreaMaxY 700m
param *.visualizer.sceneVisualizer.descriptionFigure "\"title\""
param *.S*.numApps 1
param *.S*.app[0].typename "\"UdpBasicApp\""
param *.S*.app[0].destPort 1000
param *.S*.app[0].sendInterval 0.25s
param *.S*.app[0].startTime 0s
param *.S*.app[0].messageLength 512Byte
param *.S*.app[0].packetName "\"UDPdata\""
param *.Bs1.numApps 1
param *.Bs1.app[0].typename "\"UdpSink\""
param *.Bs1.app[0].localPort 1000
param *.Bs2.numApps 1
param *.Bs2.app[0].typename "\"UdpSink\""
param *.Bs2.app[0].localPort 1000
param *.S1.app[0].destAddresses "\"Bs1\""
param *.S2.app[0].destAddresses "\"Bs1\""
param *.S3.app[0].destAddresses "\"Bs2\""
param *.S4.app[0].destAddresses "\"Bs2\""
param *.S5.app[0].destAddresses "\"Bs1\""
param **.hasStatus true

vector 0 AODV20_2bh.Bs1.wlan[0].radio radioMode:vector ETV
attr interpolationmode sample-hold
attr source radioModeChanged
attr title "Radio mode, vector"
vector 1 AODV20_2bh.S5.wlan[0].radio radioMode:vector ETV
attr interpolationmode sample-hold
attr source radioModeChanged
attr title "Radio mode, vector"
vector 2 AODV20_2bh.S1.wlan[0].radio radioMode:vector ETV
attr interpolationmode sample-hold
attr source radioModeChanged
attr title "Radio mode, vector"
vector 3 AODV20_2bh.S2.wlan[0].radio radioMode:vector ETV
attr interpolationmode sample-hold
attr source radioModeChanged
attr title "Radio mode, vector"
vector 4 AODV20_2bh.S3.wlan[0].radio radioMode:vector ETV
attr interpolationmode sample-hold
attr source radioModeChanged
attr title "Radio mode, vector"
vector 5 AODV20_2bh.S4.wlan[0].radio radioMode:vector ETV
attr interpolationmode sample-hold
attr source radioModeChanged
attr title "Radio mode, vector"
vector 6 AODV20_2bh.H1.wlan[0].radio radioMode:vector ETV
attr interpolationmode sample-hold
attr source radioModeChanged
attr title "Radio mode, vector"
vector 7 AODV20_2bh.H2.wlan[0].radio radioMode:vector ETV
attr interpolationmode sample-hold
attr source radioModeChanged
attr title "Radio mode, vector"
vector 8 AODV20_2bh.H3.wlan[0].radio radioMode:vector ETV
attr interpolationmode sample-hold
attr source radioModeChanged
attr title "Radio mode, vector"
vector 9 AODV20_2bh.H4.wlan[0].radio radioMode:vector ETV
attr interpolationmode sample-hold
attr source radioModeChanged
attr title "Radio mode, vector"
vector 10 AODV20_2bh.H5.wlan[0].radio radioMode:vector ETV
attr interpolationmode sample-hold
attr source radioModeChanged
attr title "Radio mode, vector"
vector 11 AODV20_2bh.H6.wlan[0].radio radioMode:vector ETV
attr interpolationmode sample-hold
attr source radioModeChanged
attr title "Radio mode, vector"
vector 12 AODV20_2bh.H7.wlan[0].radio radioMode:vector ETV
attr interpolationmode sample-hold
attr source radioModeChanged
attr title "Radio mode, vector"
vector 13 AODV20_2bh.H8.wlan[0].radio radioMode:vector ETV
attr interpolationmode sample-hold
attr source radioModeChanged
attr title "Radio mode, vector"
vector 14 AODV20_2bh.H9.wlan[0].radio radioMode:vector ETV
attr interpolationmode sample-hold
attr source radioModeChanged
attr title "Radio mode, vector"
vector 15 AODV20_2bh.H10.wlan[0].radio radioMode:vector ETV
attr interpolationmode sample-hold
attr source radioModeChanged
attr title "Radio mode, vector"
vector 16 AODV20_2bh.H11.wlan[0].radio radioMode:vector ETV
attr interpolationmode sample-hold
attr source radioModeChanged
attr title "Radio mode, vector"
vector 17 AODV20_2bh.H12.wlan[0].radio radioMode:vector ETV
attr interpolationmode sample-hold
attr source radioModeChanged
attr title "Radio mode, vector"
vector 18 AODV20_2bh.H13.wlan[0].radio radioMode:vector ETV
attr interpolationmode sample-hold
attr source radioModeChanged
attr title "Radio mode, vector"
vector 19 AODV20_2bh.H14.wlan[0].radio radioMode:vector ETV
attr interpolationmode sample-hold
attr source radioModeChanged
attr title "Radio mode, vector"
vector 20 AODV20_2bh.H15.wlan[0].radio radioMode:vector ETV
attr interpolationmode sample-hold
attr source radioModeChanged
attr title "Radio mode, vector"
vector 21 AODV20_2bh.H16.wlan[0].radio radioMode:vector ETV
attr interpolationmode sample-hold
attr source radioModeChanged
attr title "Radio mode, vector"
vector 22 AODV20_2bh.H17.wlan[0].radio radioMode:vector ETV
attr interpolationmode sample-hold
attr source radioModeChanged
attr title "Radio mode, vector"
vector 23 AODV20_2bh.H18.wlan[0].radio radioMode:vector ETV
attr interpolationmode sample-hold
attr source radioModeChanged
attr title "Radio mode, vector"
vector 24 AODV20_2bh.H19.wlan[0].radio radioMode:vector ETV
attr interpolationmode sample-hold
attr source radioModeChanged
attr title "Radio mode, vector"
vector 25 AODV20_2bh.H20.wlan[0].radio radioMode:vector ETV
attr interpolationmode sample-hold
attr source radioModeChanged
attr title "Radio mode, vector"
vector 26 AODV20_2bh.Bs2.wlan[0].radio radioMode:vector ETV
attr interpolationmode sample-hold
attr source radioModeChanged
attr title "Radio mode, vector"
vector 27 AODV20_2bh.BH1.wlan[0].radio radioMode:vector ETV
attr interpolationmode sample-hold
attr source radioModeChanged
attr title "Radio mode, vector"
vector 28 AODV20_2bh.BH2.wlan[0].radio radioMode:vector ETV
attr interpolationmode sample-hold
attr source radioModeChanged
attr title "Radio mode, vector"
vector 29 AODV20_2bh.Bs1.wlan[0].radio receptionState:vector ETV
attr interpolationmode sample-hold
attr source receptionStateChanged
attr title "Radio reception state, vector"
vector 30 AODV20_2bh.Bs1.wlan[0].radio transmissionState:vector ETV
attr interpolationmode sample-hold
attr source transmissionStateChanged
attr title "Radio transmission state, vector"
vector 31 AODV20_2bh.S5.wlan[0].radio receptionState:vector ETV
attr interpolationmode sample-hold
attr source receptionStateChanged
attr title "Radio reception state, vector"
vector 32 AODV20_2bh.S5.wlan[0].radio transmissionState:vector ETV
attr interpolationmode sample-hold
attr source transmissionStateChanged
attr title "Radio transmission state, vector"
vector 33 AODV20_2bh.S1.wlan[0].radio receptionState:vector ETV
attr interpolationmode sample-hold
attr source receptionStateChanged
attr title "Radio reception state, vector"
vector 34 AODV20_2bh.S1.wlan[0].radio transmissionState:vector ETV
attr interpolationmode sample-hold
attr source transmissionStateChanged
attr title "Radio transmission state, vector"
vector 35 AODV20_2bh.S2.wlan[0].radio receptionState:vector ETV
attr interpolationmode sample-hold
attr source receptionStateChanged
attr title "Radio reception state, vector"
vector 36 AODV20_2bh.S2.wlan[0].radio transmissionState:vector ETV
attr interpolationmode sample-hold
attr source transmissionStateChanged
attr title "Radio transmission state, vector"
vector 37 AODV20_2bh.S3.wlan[0].radio receptionState:vector ETV
attr interpolationmode sample-hold
attr source receptionStateChanged
attr title "Radio reception state, vector"
vector 38 AODV20_2bh.S3.wlan[0].radio transmissionState:vector ETV
attr interpolationmode sample-hold
attr source transmissionStateChanged
attr title "Radio transmission state, vector"
vector 39 AODV20_2bh.S4.wlan[0].radio receptionState:vector ETV
attr interpolationmode sample-hold
attr source receptionStateChanged
attr title "Radio reception state, vector"
vector 40 AODV20_2bh.S4.wlan[0].radio transmissionState:vector ETV
attr interpolationmode sample-hold
attr source transmissionStateChanged
attr title "Radio transmission state, vector"
vector 41 AODV20_2bh.H1.wlan[0].radio receptionState:vector ETV
attr interpolationmode sample-hold
attr source receptionStateChanged
attr title "Radio reception state, vector"
vector 42 AODV20_2bh.H1.wlan[0].radio transmissionState:vector ETV
attr interpolationmode sample-hold
attr source transmissionStateChanged
attr title "Radio transmission state, vector"
vector 43 AODV20_2bh.H2.wlan[0].radio receptionState:vector ETV
attr interpolationmode sample-hold
attr source receptionStateChanged
attr title "Radio reception state, vector"
vector 44 AODV20_2bh.H2.wlan[0].radio transmissionState:vector ETV
attr interpolationmode sample-hold
attr source transmissionStateChanged
attr title "Radio transmission state, vector"
vector 45 AODV20_2bh.H3.wlan[0].radio receptionState:vector ETV
attr interpolationmode sample-hold
attr source receptionStateChanged
attr title "Radio reception state, vector"
vector 46 AODV20_2bh.H3.wlan[0].radio transmissionState:vector ETV
attr interpolationmode sample-hold
attr source transmissionStateChanged
attr title "Radio transmission state, vector"
vector 47 AODV20_2bh.H4.wlan[0].radio receptionState:vector ETV
attr interpolationmode sample-hold
attr source receptionStateChanged
attr title "Radio reception state, vector"
vector 48 AODV20_2bh.H4.wlan[0].radio transmissionState:vector ETV
attr interpolationmode sample-hold
attr source transmissionStateChanged
attr title "Radio transmission state, vector"
vector 49 AODV20_2bh.H5.wlan[0].radio receptionState:vector ETV
attr interpolationmode sample-hold
attr source receptionStateChanged
attr title "Radio reception state, vector"
vector 50 AODV20_2bh.H5.wlan[0].radio transmissionState:vector ETV
attr interpolationmode sample-hold
attr source transmissionStateChanged
attr title "Radio transmission state, vector"
vector 51 AODV20_2bh.H6.wlan[0].radio receptionState:vector ETV
attr interpolationmode sample-hold
attr source receptionStateChanged
attr title "Radio reception state, vector"
vector 52 AODV20_2bh.H6.wlan[0].radio transmissionState:vector ETV
attr interpolationmode sample-hold
attr source transmissionStateChanged
attr title "Radio transmission state, vector"
vector 53 AODV20_2bh.H7.wlan[0].radio receptionState:vector ETV
attr interpolationmode sample-hold
attr source receptionStateChanged
attr title "Radio reception state, vector"
vector 54 AODV20_2bh.H7.wlan[0].radio transmissionState:vector ETV
attr interpolationmode sample-hold
attr source transmissionStateChanged
attr title "Radio transmission state, vector"
vector 55 AODV20_2bh.H8.wlan[0].radio receptionState:vector ETV
attr interpolationmode sample-hold
attr source receptionStateChanged
attr title "Radio reception state, vector"
vector 56 AODV20_2bh.H8.wlan[0].radio transmissionState:vector ETV
attr interpolationmode sample-hold
attr source transmissionStateChanged
attr title "Radio transmission state, vector"
vector 57 AODV20_2bh.H9.wlan[0].radio receptionState:vector ETV
attr interpolationmode sample-hold
attr source receptionStateChanged
attr title "Radio reception state, vector"
vector 58 AODV20_2bh.H9.wlan[0].radio transmissionState:vector ETV
attr interpolationmode sample-hold
attr source transmissionStateChanged
attr title "Radio transmission state, vector"
vector 59 AODV20_2bh.H10.wlan[0].radio receptionState:vector ETV
attr interpolationmode sample-hold
attr source receptionStateChanged
attr title "Radio reception state, vector"
vector 60 AODV20_2bh.H10.wlan[0].radio transmissionState:vector ETV
attr interpolationmode sample-hold
attr source transmissionStateChanged
attr title "Radio transmission state, vector"
vector 61 AODV20_2bh.H11.wlan[0].radio receptionState:vector ETV
attr interpolationmode sample-hold
attr source receptionStateChanged
attr title "Radio reception state, vector"
vector 62 AODV20_2bh.H11.wlan[0].radio transmissionState:vector ETV
attr interpolationmode sample-hold
attr source transmissionStateChanged
attr title "Radio transmission state, vector"
vector 63 AODV20_2bh.H12.wlan[0].radio receptionState:vector ETV
attr interpolationmode sample-hold
attr source receptionStateChanged
attr title "Radio reception state, vector"
vector 64 AODV20_2bh.H12.wlan[0].radio transmissionState:vector ETV
attr interpolationmode sample-hold
attr source transmissionStateChanged
attr title "Radio transmission state, vector"
vector 65 AODV20_2bh.H13.wlan[0].radio receptionState:vector ETV
attr interpolationmode sample-hold
attr source receptionStateChanged
attr title "Radio reception state, vector"
vector 66 AODV20_2bh.H13.wlan[0].radio transmissionState:vector ETV
attr interpolationmode sample-hold
attr source transmissionStateChanged
attr title "Radio transmission state, vector"
vector 67 AODV20_2bh.H14.wlan[0].radio receptionState:vector ETV
attr interpolationmode sample-hold
attr source receptionStateChanged
attr title "Radio reception state, vector"
vector 68 AODV20_2bh.H14.wlan[0].radio transmissionState:vector ETV
attr interpolationmode sample-hold
attr source transmissionStateChanged
attr title "Radio transmission state, vector"
vector 69 AODV20_2bh.H15.wlan[0].radio receptionState:vector ETV
attr interpolationmode sample-hold
attr source receptionStateChanged
attr title "Radio reception state, vector"
vector 70 AODV20_2bh.H15.wlan[0].radio transmissionState:vector ETV
attr interpolationmode sample-hold
attr source transmissionStateChanged
attr title "Radio transmission state, vector"
vector 71 AODV20_2bh.H16.wlan[0].radio receptionState:vector ETV
attr interpolationmode sample-hold
attr source receptionStateChanged
attr title "Radio reception state, vector"
vector 72 AODV20_2bh.H16.wlan[0].radio transmissionState:vector ETV
attr interpolationmode sample-hold
attr source transmissionStateChanged
attr title "Radio transmission state, vector"
vector 73 AODV20_2bh.H17.wlan[0].radio receptionState:vector ETV
attr interpolationmode sample-hold
attr source receptionStateChanged
attr title "Radio reception state, vector"
vector 74 AODV20_2bh.H17.wlan[0].radio transmissionState:vector ETV
attr interpolationmode sample-hold
attr source transmissionStateChanged
attr title "Radio transmission state, vector"
vector 75 AODV20_2bh.H18.wlan[0].radio receptionState:vector ETV
attr interpolationmode sample-hold
attr source receptionStateChanged
attr title "Radio reception state, vector"
vector 76 AODV20_2bh.H18.wlan[0].radio transmissionState:vector ETV
attr interpolationmode sample-hold
attr source transmissionStateChanged
attr title "Radio transmission state, vector"
vector 77 AODV20_2bh.H19.wlan[0].radio receptionState:vector ETV
attr interpolationmode sample-hold
attr source receptionStateChanged
attr title "Radio reception state, vector"
vector 78 AODV20_2bh.H19.wlan[0].radio transmissionState:vector ETV
attr interpolationmode sample-hold
attr source transmissionStateChanged
attr title "Radio transmission state, vector"
vector 79 AODV20_2bh.H20.wlan[0].radio receptionState:vector ETV
attr interpolationmode sample-hold
attr source receptionStateChanged
attr title "Radio reception state, vector"
vector 80 AODV20_2bh.H20.wlan[0].radio transmissionState:vector ETV
attr interpolationmode sample-hold
attr source transmissionStateChanged
attr title "Radio transmission state, vector"
vector 81 AODV20_2bh.Bs2.wlan[0].radio receptionState:vector ETV
attr interpolationmode sample-hold
attr source receptionStateChanged
attr title "Radio reception state, vector"
vector 82 AODV20_2bh.Bs2.wlan[0].radio transmissionState:vector ETV
attr interpolationmode sample-hold
attr source transmissionStateChanged
attr title "Radio transmission state, vector"
vector 83 AODV20_2bh.BH1.wlan[0].radio receptionState:vector ETV
attr interpolationmode sample-hold
attr source receptionStateChanged
attr title "Radio reception state, vector"
vector 84 AODV20_2bh.BH1.wlan[0].radio transmissionState:vector ETV
attr interpolationmode sample-hold
attr source transmissionStateChanged
attr title "Radio transmission state, vector"
vector 85 AODV20_2bh.BH2.wlan[0].radio receptionState:vector ETV
attr interpolationmode sample-hold
attr source receptionStateChanged
attr title "Radio reception state, vector"
vector 86 AODV20_2bh.BH2.wlan[0].radio transmissionState:vector ETV
attr interpolationmode sample-hold
attr source transmissionStateChanged
attr title "Radio transmission state, vector"
0	17223 24 0 0 0 0 3 0 4 4 16
1	17247 24 0 0 0 0 3 0 4 4 16
2	17271 24 0 0 0 0 3 0 4 4 16
3	17295 24 0 0 0 0 3 0 4 4 16
4	17319 24 0 0 0 0 3 0 4 4 16
5	17343 24 0 0 0 0 3 0 4 4 16
6	17367 24 0 0 0 0 3 0 4 4 16
7	17391 24 0 0 0 0 3 0 4 4 16
8	17415 24 0 0 0 0 3 0 4 4 16
9	17439 24 0 0 0 0 3 0 4 4 16
10	17463 27 0 0 0 0 3 0 4 4 16
11	17490 27 0 0 0 0 3 0 4 4 16
12	17517 27 0 0 0 0 3 0 4 4 16
13	17544 27 0 0 0 0 3 0 4 4 16
14	17571 27 0 0 0 0 3 0 4 4 16
15	17598 27 0 0 0 0 3 0 4 4 16
16	17625 27 0 0 0 0 3 0 4 4 16
17	17652 27 0 0 0 0 3 0 4 4 16
18	17679 27 0 0 0 0 3 0 4 4 16
19	17706 27 0 0 0 0 3 0 4 4 16
20	17733 27 0 0 0 0 3 0 4 4 16
21	17760 27 0 0 0 0 3 0 4 4 16
22	17787 27 0 0 0 0 3 0 4 4 16
23	17814 27 0 0 0 0 3 0 4 4 16
24	17841 27 0 0 0 0 3 0 4 4 16
25	17868 27 0 0 0 0 3 0 4 4 16
26	17895 27 0 0 0 0 3 0 4 4 16
27	17922 27 0 0 0 0 3 0 4 4 16
28	17949 27 0 0 0 0 3 0 4 4 16
29	17976 9 0 0 0 0 1 1 1 1 1
30	17985 9 0 0 0 0 1 1 1 1 1
31	17994 9 0 0 0 0 1 1 1 1 1
32	18003 9 0 0 0 0 1 1 1 1 1
33	18012 9 0 0 0 0 1 1 1 1 1
34	18021 9 0 0 0 0 1 1 1 1 1
35	18030 9 0 0 0 0 1 1 1 1 1
36	18039 9 0 0 0 0 1 1 1 1 1
37	18048 9 0 0 0 0 1 1 1 1 1
38	18057 9 0 0 0 0 1 1 1 1 1
39	18066 9 0 0 0 0 1 1 1 1 1
40	18075 9 0 0 0 0 1 1 1 1 1
41	18084 9 0 0 0 0 1 1 1 1 1
42	18093 9 0 0 0 0 1 1 1 1 1
43	18102 9 0 0 0 0 1 1 1 1 1
44	18111 9 0 0 0 0 1 1 1 1 1
45	18120 9 0 0 0 0 1 1 1 1 1
46	18129 9 0 0 0 0 1 1 1 1 1
47	18138 9 0 0 0 0 1 1 1 1 1
48	18147 9 0 0 0 0 1 1 1 1 1
49	18156 9 0 0 0 0 1 1 1 1 1
50	18165 9 0 0 0 0 1 1 1 1 1
51	18174 9 0 0 0 0 1 1 1 1 1
52	18183 9 0 0 0 0 1 1 1 1 1
53	18192 9 0 0 0 0 1 1 1 1 1
54	18201 9 0 0 0 0 1 1 1 1 1
55	18210 9 0 0 0 0 1 1 1 1 1
56	18219 9 0 0 0 0 1 1 1 1 1
57	18228 9 0 0 0 0 1 1 1 1 1
58	18237 9 0 0 0 0 1 1 1 1 1
59	18246 9 0 0 0 0 1 1 1 1 1
60	18255 9 0 0 0 0 1 1 1 1 1
61	18264 9 0 0 0 0 1 1 1 1 1
62	18273 9 0 0 0 0 1 1 1 1 1
63	18282 9 0 0 0 0 1 1 1 1 1
64	18291 9 0 0 0 0 1 1 1 1 1
65	18300 9 0 0 0 0 1 1 1 1 1
66	18309 9 0 0 0 0 1 1 1 1 1
67	18318 9 0 0 0 0 1 1 1 1 1
68	18327 9 0 0 0 0 1 1 1 1 1
69	18336 9 0 0 0 0 1 1 1 1 1
70	18345 9 0 0 0 0 1 1 1 1 1
71	18354 9 0 0 0 0 1 1 1 1 1
72	18363 9 0 0 0 0 1 1 1 1 1
73	18372 9 0 0 0 0 1 1 1 1 1
74	18381 9 0 0 0 0 1 1 1 1 1
75	18390 9 0 0 0 0 1 1 1 1 1
76	18399 9 0 0 0 0 1 1 1 1 1
77	18408 9 0 0 0 0 1 1 1 1 1
78	18417 9 0 0 0 0 1 1 1 1 1
79	18426 9 0 0 0 0 1 1 1 1 1
80	18435 9 0 0 0 0 1 1 1 1 1
81	18444 9 0 0 0 0 1 1 1 1 1
82	18453 9 0 0 0 0 1 1 1 1 1
83	18462 9 0 0 0 0 1 1 1 1 1
84	18471 9 0 0 0 0 1 1 1 1 1
85	18480 9 0 0 0 0 1 1 1 1 1
86	18489 9 0 0 0 0 1 1 1 1 1

