version 2
run General-0-20210711-16:35:28-15711
attr configname General
attr datetime 20210711-16:35:28
attr experiment General
attr inifile simpledelay.ini
attr iterationvars ""
attr iterationvarsf ""
attr measurement ""
attr network ntuattack.simulations.delay.SimpleDelayAttack
attr processid 15711
attr repetition 0
attr replication #0
attr resultdir results
attr runnumber 0
attr seedset 0
param **.wlan[*].typename "\"AckingWirelessInterface\""
param **.wlan[*].bitrate 2Mbps
param **.wlan[*].mac.headerLength 23B
param **.wlan[*].radio.typename "\"UnitDiskRadio\""
param **.wlan[*].radio.transmitter.headerLength 96b
param **.wlan[*].radio.transmitter.communicationRange 200m
param **.wlan[*].radio.transmitter.interferenceRange 0m
param **.wlan[*].radio.transmitter.detectionRange 0m
param **.wlan[*].radio.receiver.ignoreInterference true
param **.hasStatus true
param *.visualizer.sceneVisualizer.descriptionFigure "\"title\""
param *.visualizer.mediumVisualizer.displaySignals true
param *.visualizer.physicalLinkVisualizer.displayLinks true
param *.visualizer.dataLinkVisualizer.displayLinks true
param *.visualizer.networkRouteVisualizer.displayRoutes true
param *.sender.numApps 1
param *.sender.app[0].typename "\"UdpBasicApp\""
param *.sender.app[0].destAddresses "\"receiver\""
param *.sender.app[0].destPort 1000
param *.sender.app[0].sendInterval "0.5s + uniform(-0.001s,0.001s)"
param *.sender.app[0].startTime 0s
param *.sender.app[0].messageLength 512Byte
param *.sender.app[0].packetName "\"UDPdata\""
param *.receiver.numApps 1
param *.receiver.app[0].typename "\"UdpSink\""
param *.receiver.app[0].localPort 1000

vector 0 SimpleDelayAttack.sender.wlan[0].radio radioMode:vector ETV
attr interpolationmode sample-hold
attr source radioModeChanged
attr title "Radio mode, vector"
vector 1 SimpleDelayAttack.receiver.wlan[0].radio radioMode:vector ETV
attr interpolationmode sample-hold
attr source radioModeChanged
attr title "Radio mode, vector"
vector 2 SimpleDelayAttack.Host.wlan[0].radio radioMode:vector ETV
attr interpolationmode sample-hold
attr source radioModeChanged
attr title "Radio mode, vector"
vector 3 SimpleDelayAttack.sender.wlan[0].radio receptionState:vector ETV
attr interpolationmode sample-hold
attr source receptionStateChanged
attr title "Radio reception state, vector"
vector 4 SimpleDelayAttack.sender.wlan[0].radio transmissionState:vector ETV
attr interpolationmode sample-hold
attr source transmissionStateChanged
attr title "Radio transmission state, vector"
vector 5 SimpleDelayAttack.receiver.wlan[0].radio receptionState:vector ETV
attr interpolationmode sample-hold
attr source receptionStateChanged
attr title "Radio reception state, vector"
vector 6 SimpleDelayAttack.receiver.wlan[0].radio transmissionState:vector ETV
attr interpolationmode sample-hold
attr source transmissionStateChanged
attr title "Radio transmission state, vector"
vector 7 SimpleDelayAttack.Host.wlan[0].radio receptionState:vector ETV
attr interpolationmode sample-hold
attr source receptionStateChanged
attr title "Radio reception state, vector"
vector 8 SimpleDelayAttack.Host.wlan[0].radio transmissionState:vector ETV
attr interpolationmode sample-hold
attr source transmissionStateChanged
attr title "Radio transmission state, vector"
vector 9 SimpleDelayAttack.sender.app[0] packetSent:vector(packetBytes) ETV
attr interpolationmode none
attr source packetSent
attr title "packets sent, vector(packetBytes)"
vector 10 SimpleDelayAttack.sender.udp packetSent:vector(packetBytes) ETV
attr interpolationmode none
attr source packetSent
attr title "packets sent, vector(packetBytes)"
vector 11 SimpleDelayAttack.sender.wlan[0].mac rcvdPkFromHl:vector(packetBytes) ETV
attr interpolationmode none
attr source packetReceivedFromUpper
attr title "packets received from higher layer, vector(packetBytes)"
vector 12 SimpleDelayAttack.sender.wlan[0].mac.queue packetPushed:vector(packetBytes) ETV
attr interpolationmode none
attr title "packet pushed, vector(packetBytes)"
vector 13 SimpleDelayAttack.sender.wlan[0].mac.queue queueLength:vector ETV
attr interpolationmode sample-hold
attr source "count(packetPushed) - count(packetPopped) - count(packetRemoved) - count(packetDropped)"
attr title "queue length, vector"
vector 14 SimpleDelayAttack.sender.wlan[0].mac.queue packetPopped:vector(packetBytes) ETV
attr interpolationmode none
attr title "packet popped, vector(packetBytes)"
vector 15 SimpleDelayAttack.sender.wlan[0].mac.queue queueingTime:vector ETV
attr interpolationmode none
attr source queueingTime(packetPopped)
attr title "queueing times, vector"
attr unit s
vector 16 SimpleDelayAttack.sender.wlan[0].mac sentDownPk:vector(packetBytes) ETV
attr interpolationmode none
attr source packetSentToLower
attr title "packets sent to lower layer, vector(packetBytes)"
vector 17 SimpleDelayAttack.Host.wlan[0].mac rcvdPkFromLl:vector(packetBytes) ETV
attr interpolationmode none
attr source packetReceivedFromLower
attr title "packets received from lower layer, vector(packetBytes)"
vector 18 SimpleDelayAttack.Host.wlan[0].mac passedUpPk:vector(packetBytes) ETV
attr interpolationmode none
attr source packetSentToUpper
attr title "packets passed to higher layer, vector(packetBytes)"
vector 19 SimpleDelayAttack.Host.udp packetReceived:vector(packetBytes) ETV
attr interpolationmode none
attr source packetReceived
attr title "packets received, vector(packetBytes)"
vector 20 SimpleDelayAttack.Host.udp passedUpPk:vector(count) ETV
attr interpolationmode none
attr source packetSentToUpper
attr title "packets passed up, vector(count)"
vector 21 SimpleDelayAttack.Host.udp packetSent:vector(packetBytes) ETV
attr interpolationmode none
attr source packetSent
attr title "packets sent, vector(packetBytes)"
vector 22 SimpleDelayAttack.Host.wlan[0].mac rcvdPkFromHl:vector(packetBytes) ETV
attr interpolationmode none
attr source packetReceivedFromUpper
attr title "packets received from higher layer, vector(packetBytes)"
vector 23 SimpleDelayAttack.Host.wlan[0].mac.queue packetPushed:vector(packetBytes) ETV
attr interpolationmode none
attr title "packet pushed, vector(packetBytes)"
vector 24 SimpleDelayAttack.Host.wlan[0].mac.queue queueLength:vector ETV
attr interpolationmode sample-hold
attr source "count(packetPushed) - count(packetPopped) - count(packetRemoved) - count(packetDropped)"
attr title "queue length, vector"
vector 25 SimpleDelayAttack.Host.wlan[0].mac.queue packetPopped:vector(packetBytes) ETV
attr interpolationmode none
attr title "packet popped, vector(packetBytes)"
vector 26 SimpleDelayAttack.Host.wlan[0].mac.queue queueingTime:vector ETV
attr interpolationmode none
attr source queueingTime(packetPopped)
attr title "queueing times, vector"
attr unit s
vector 27 SimpleDelayAttack.Host.wlan[0].mac sentDownPk:vector(packetBytes) ETV
attr interpolationmode none
attr source packetSentToLower
attr title "packets sent to lower layer, vector(packetBytes)"
vector 28 SimpleDelayAttack.sender.wlan[0].mac rcvdPkFromLl:vector(packetBytes) ETV
attr interpolationmode none
attr source packetReceivedFromLower
attr title "packets received from lower layer, vector(packetBytes)"
vector 29 SimpleDelayAttack.sender.wlan[0].mac passedUpPk:vector(packetBytes) ETV
attr interpolationmode none
attr source packetSentToUpper
attr title "packets passed to higher layer, vector(packetBytes)"
vector 30 SimpleDelayAttack.sender.udp packetReceived:vector(packetBytes) ETV
attr interpolationmode none
attr source packetReceived
attr title "packets received, vector(packetBytes)"
vector 31 SimpleDelayAttack.sender.udp passedUpPk:vector(count) ETV
attr interpolationmode none
attr source packetSentToUpper
attr title "packets passed up, vector(count)"
vector 32 SimpleDelayAttack.receiver.wlan[0].mac rcvdPkFromLl:vector(packetBytes) ETV
attr interpolationmode none
attr source packetReceivedFromLower
attr title "packets received from lower layer, vector(packetBytes)"
vector 33 SimpleDelayAttack.receiver.wlan[0].mac passedUpPk:vector(packetBytes) ETV
attr interpolationmode none
attr source packetSentToUpper
attr title "packets passed to higher layer, vector(packetBytes)"
vector 34 SimpleDelayAttack.receiver.udp packetReceived:vector(packetBytes) ETV
attr interpolationmode none
attr source packetReceived
attr title "packets received, vector(packetBytes)"
vector 35 SimpleDelayAttack.receiver.udp passedUpPk:vector(count) ETV
attr interpolationmode none
attr source packetSentToUpper
attr title "packets passed up, vector(count)"
vector 36 SimpleDelayAttack.receiver.udp packetSent:vector(packetBytes) ETV
attr interpolationmode none
attr source packetSent
attr title "packets sent, vector(packetBytes)"
vector 37 SimpleDelayAttack.receiver.ipv4.arp arpRequestSent:vector(packetBytes) ETV
attr source arpRequestSent
attr title "ARP request sent, vector(packetBytes)"
vector 38 SimpleDelayAttack.receiver.wlan[0].mac rcvdPkFromHl:vector(packetBytes) ETV
attr interpolationmode none
attr source packetReceivedFromUpper
attr title "packets received from higher layer, vector(packetBytes)"
vector 39 SimpleDelayAttack.receiver.wlan[0].mac.queue packetPushed:vector(packetBytes) ETV
attr interpolationmode none
attr title "packet pushed, vector(packetBytes)"
vector 40 SimpleDelayAttack.receiver.wlan[0].mac.queue queueLength:vector ETV
attr interpolationmode sample-hold
attr source "count(packetPushed) - count(packetPopped) - count(packetRemoved) - count(packetDropped)"
attr title "queue length, vector"
vector 41 SimpleDelayAttack.receiver.wlan[0].mac.queue packetPopped:vector(packetBytes) ETV
attr interpolationmode none
attr title "packet popped, vector(packetBytes)"
vector 42 SimpleDelayAttack.receiver.wlan[0].mac.queue queueingTime:vector ETV
attr interpolationmode none
attr source queueingTime(packetPopped)
attr title "queueing times, vector"
attr unit s
vector 43 SimpleDelayAttack.receiver.wlan[0].mac sentDownPk:vector(packetBytes) ETV
attr interpolationmode none
attr source packetSentToLower
attr title "packets sent to lower layer, vector(packetBytes)"
vector 44 SimpleDelayAttack.Host.ipv4.arp arpReplySent:vector(packetBytes) ETV
attr source arpReplySent
attr title "ARP replies sent, vector(packetBytes)"
vector 45 SimpleDelayAttack.sender.wlan[0].mac packetDropNotAddressedToUs:vector(packetBytes) ETV
attr interpolationmode none
attr source packetDropReasonIsNotAddressedToUs(packetDropped)
attr title "packet drop: not addressed to us, vector(packetBytes)"
vector 46 SimpleDelayAttack.Host.ipv4.arp arpRequestSent:vector(packetBytes) ETV
attr source arpRequestSent
attr title "ARP request sent, vector(packetBytes)"
vector 47 SimpleDelayAttack.sender.ipv4.arp arpReplySent:vector(packetBytes) ETV
attr source arpReplySent
attr title "ARP replies sent, vector(packetBytes)"
vector 48 SimpleDelayAttack.receiver.wlan[0].mac packetDropNotAddressedToUs:vector(packetBytes) ETV
attr interpolationmode none
attr source packetDropReasonIsNotAddressedToUs(packetDropped)
attr title "packet drop: not addressed to us, vector(packetBytes)"
vector 49 SimpleDelayAttack.receiver.app[0] packetReceived:vector(packetBytes) ETV
attr interpolationmode none
attr source packetReceived
attr title "packets received, vector(packetBytes)"
vector 50 SimpleDelayAttack.receiver.app[0] endToEndDelay:vector ETV
attr interpolationmode none
attr source dataAge(packetReceived)
attr title "end-to-end delay, vector"
attr unit s
vector 51 SimpleDelayAttack.receiver.app[0] rcvdPkSeqNo:vector ETV
attr interpolationmode none
attr source appPkSeqNo(packetReceived)
attr title "received packet sequence number, vector"
vector 52 SimpleDelayAttack.receiver.app[0] throughput:vector ETV
attr source throughput(packetReceived)
attr title "throughput, vector"
attr unit bps
vector 53 SimpleDelayAttack.sender.ipv4.arp arpRequestSent:vector(packetBytes) ETV
attr source arpRequestSent
attr title "ARP request sent, vector(packetBytes)"
vector 54 SimpleDelayAttack.receiver.ipv4.arp arpReplySent:vector(packetBytes) ETV
attr source arpReplySent
attr title "ARP replies sent, vector(packetBytes)"
vector 55 SimpleDelayAttack.sender.app[0] throughput:vector ETV
attr source throughput(packetReceived)
attr title "throughput, vector"
attr unit bps
0	0	0	0
0	0	0	0
0	0	0	4
1	0	0	0
1	0	0	0
1	0	0	4
2	0	0	0
2	0	0	0
2	0	0	4
3	0	0	1
3	33	0.008146400145	3
3	36	0.008494400145	1
3	59	0.008747611199	3
3	62	0.008999611199	1
3	83	0.012346639105	3
3	86	0.012598639105	1
3	103	0.012851763705	3
3	106	0.013183763705	1
3	125	0.015484888305	3
3	128	0.017784888305	1
3	158	0.502486813833	3
3	161	0.504786813833	1
3	187	1.002576580188	3
3	190	1.004876580188	1
3	213	1.502423889782	3
3	216	1.504723889782	1
3	242	2.002715678012	3
3	245	2.005015678012	1
3	268	2.502590852432	3
3	271	2.504890852432	1
3	297	3.003374398436	3
3	300	3.005674398436	1
3	325	3.504301723964	3
3	328	3.506601723964	1
3	354	4.004068607007	3
3	357	4.006368607007	1
3	380	4.504652057074	3
3	383	4.506952057074	1
3	409	5.004709846917	3
3	412	5.007009846917	1
3	436	5.504845936045	3
3	439	5.507145936045	1
3	467	6.005697129311	3
3	470	6.007997129311	1
3	493	6.504839201428	3
3	496	6.507139201428	1
3	522	7.004013460022	3
3	525	7.006313460022	1
3	548	7.50305389682	3
3	551	7.50535389682	1
3	577	8.003719136506	3
3	580	8.006019136506	1
3	604	8.50427545002	3
3	608	8.50657545002	1
3	634	9.005015474311	3
3	637	9.007315474311	1
3	660	9.505972710997	3
3	663	9.508272710997	1
3	689	10.006571028125	3
3	692	10.008871028125	1
3	715	10.506493986851	3
3	718	10.508793986851	1
3	744	11.007055045202	3
3	747	11.009355045202	1
3	772	11.50629159405	3
3	775	11.50859159405	1
3	801	12.006571436084	3
3	804	12.008871436084	1
3	827	12.505858142655	3
3	830	12.508158142655	1
3	856	13.006747480492	3
3	859	13.009047480492	1
3	882	13.506791177148	3
3	885	13.509091177148	1
3	912	14.00662050103	3
3	916	14.00892050103	1
3	939	14.506149612253	3
3	942	14.508449612253	1
3	968	15.006698079626	3
3	971	15.008998079626	1
3	994	15.506610380298	3
3	997	15.508910380298	1
3	1023	16.006747248195	3
3	1026	16.009047248195	1
3	1049	16.505784827791	3
3	1052	16.508084827791	1
3	1079	17.006020098793	3
3	1083	17.008320098793	1
3	1106	17.506244290238	3
3	1109	17.508544290238	1
3	1135	18.006478158235	3
3	1139	18.008778158235	1
3	1162	18.507365654386	3
3	1165	18.509665654386	1
3	1191	19.007729294982	3
3	1194	19.010029294982	1
3	1217	19.507448310786	3
3	1220	19.509748310786	1
3	1248	20.007322374691	3
3	1251	20.009622374691	1
3	1275	20.507717637082	3
3	1278	20.510017637082	1
3	1304	21.006838088015	3
3	1307	21.009138088015	1
3	1330	21.507171621438	3
3	1333	21.509471621438	1
3	1359	22.007512897185	3
3	1362	22.009812897185	1
3	1386	22.506933662308	3
3	1390	22.509233662308	1
3	1416	23.006191514905	3
3	1419	23.008491514905	1
3	1442	23.505822371604	3
3	1445	23.508122371604	1
3	1471	24.005549793151	3
3	1474	24.007849793151	1
3	1497	24.505690186703	3
3	1500	24.507990186703	1
3	1526	25.00556738973	3
3	1529	25.00786738973	1
3	1553	25.506544137394	3
3	1557	25.508844137394	1
3	1583	26.005748227008	3
3	1586	26.008048227008	1
3	1609	26.505165980525	3
3	1612	26.507465980525	1
3	1638	27.004488599547	3
3	1641	27.006788599547	1
3	1664	27.504794816191	3
3	1667	27.507094816191	1
3	1693	28.004301399394	3
3	1696	28.006601399394	1
3	1719	28.50423402094	3
3	1723	28.50653402094	1
3	1750	29.003722872116	3
3	1753	29.006022872116	1
3	1776	29.503040811289	3
3	1779	29.505340811289	1
3	1805	30.002261561567	3
3	1808	30.004561561567	1
3	1831	30.502574220751	3
3	1834	30.504874220751	1
3	1860	31.00185058665	3
3	1863	31.00415058665	1
3	1886	31.501243751363	3
3	1890	31.503543751363	1
3	1917	32.000981201694	3
3	1920	32.003281201694	1
3	1943	32.501623188156	3
3	1946	32.503923188156	1
3	1972	33.000817390698	3
3	1975	33.003117390698	1
3	1998	33.501493280511	3
3	2001	33.503793280511	1
3	2027	34.000685477313	3
3	2030	34.002985477313	1
3	2055	34.501638396243	3
3	2058	34.503938396243	1
3	2084	35.00157569864	3
3	2087	35.00387569864	1
3	2110	35.502529220822	3
3	2113	35.504829220822	1
3	2139	36.002738911858	3
3	2142	36.005038911858	1
3	2165	36.503217439021	3
3	2168	36.505517439021	1
3	2196	37.002295814599	3
3	2199	37.004595814599	1
3	2222	37.501861428518	3
3	2225	37.504161428518	1
3	2251	38.001101821647	3
3	2254	38.003401821647	1
3	2277	38.500694102046	3
3	2280	38.502994102046	1
3	2303	38.999931557475	3
3	2309	39.002231557475	1
3	2332	39.499567523822	3
3	2336	39.501867523822	1
3	2360	39.999396049799	3
3	2366	40.001696049799	1
3	2389	40.498524344801	3
3	2392	40.500824344801	1
3	2415	40.99890928904	3
3	2421	41.00120928904	1
3	2444	41.499042491937	3
3	2447	41.501342491937	1
3	2470	41.998573270919	3
3	2476	42.000873270919	1
3	2500	42.498619767025	3
3	2504	42.500919767025	1
3	2527	42.997807648037	3
3	2533	43.000107648037	1
3	2556	43.497959541027	3
3	2559	43.500259541027	1
3	2582	43.998818133423	3
3	2588	44.001118133423	1
3	2611	44.498455271333	3
3	2614	44.500755271333	1
3	2637	44.998790092085	3
3	2643	45.001090092085	1
3	2667	45.498053687809	3
3	2671	45.500353687809	1
3	2694	45.998486342205	3
3	2700	46.000786342205	1
3	2723	46.498065154387	3
3	2726	46.500365154387	1
3	2749	46.997431537114	3
3	2752	46.999731537114	1
3	2778	47.49760456298	3
3	2781	47.49990456298	1
3	2804	47.996644778081	3
3	2807	47.998944778081	1
3	2834	48.497302658138	3
3	2838	48.499602658138	1
3	2861	48.996312049102	3
3	2864	48.998612049102	1
3	2890	49.496667682181	3
3	2893	49.498967682181	1
3	2916	49.996207698118	3
3	2919	49.998507698118	1
3	2945	50.496678086159	3
3	2948	50.498978086159	1
3	2971	50.997602463249	3
3	2974	50.999902463249	1
3	3001	51.497099969528	3
3	3005	51.499399969528	1
3	3028	51.9972522842	3
3	3031	51.9995522842	1
3	3057	52.497436368053	3
3	3060	52.499736368053	1
3	3083	52.997580871856	3
3	3086	52.999880871856	1
3	3112	53.497027035117	3
3	3115	53.499327035117	1
3	3138	53.997932533135	3
3	3144	54.000232533135	1
3	3169	54.497826783892	3
3	3172	54.500126783892	1
3	3195	54.998519601224	3
3	3201	55.000819601224	1
3	3224	55.498918559779	3
3	3227	55.501218559779	1
3	3250	55.998513433682	3
3	3256	56.000813433682	1
3	3279	56.499141029321	3
3	3282	56.501441029321	1
3	3307	56.998934040799	3
3	3313	57.001234040799	1
3	3336	57.499696247201	3
3	3339	57.501996247201	1
3	3362	57.999858792953	3
3	3368	58.002158792953	1
3	3391	58.500622263672	3
3	3394	58.502922263672	1
3	3420	59.001007326855	3
3	3423	59.003307326855	1
3	3448	59.501457835418	3
3	3451	59.503757835418	1
3	3477	60.001460484184	3
3	3480	60.003760484184	1
3	3503	60.502372651464	3
3	3506	60.504672651464	1
3	3532	61.002660631857	3
3	3535	61.004960631857	1
3	3558	61.502508341945	3
3	3561	61.504808341945	1
3	3589	62.002721128379	3
3	3592	62.005021128379	1
3	3615	62.50175951478	3
3	3618	62.50405951478	1
3	3644	63.001362664412	3
3	3647	63.003662664412	1
3	3670	63.501683011489	3
3	3673	63.503983011489	1
3	3699	64.001263166709	3
3	3702	64.003563166709	1
3	3726	64.501499197563	3
3	3730	64.503799197563	1
3	3756	65.00135673496	3
3	3759	65.00365673496	1
3	3782	65.500627683097	3
3	3785	65.502927683097	1
3	3811	66.000224247753	3
3	3814	66.002524247753	1
3	3837	66.500364177576	3
3	3840	66.502664177576	1
3	3866	67.000545923102	3
3	3869	67.002845923102	1
3	3893	67.500694573614	3
3	3897	67.502994573614	1
3	3923	68.001000975245	3
3	3926	68.003300975245	1
3	3949	68.501305181794	3
3	3952	68.503605181794	1
3	3978	69.001168018663	3
3	3981	69.003468018663	1
3	4004	69.50196111186	3
3	4007	69.50426111186	1
3	4033	70.001696235603	3
3	4036	70.003996235603	1
3	4061	70.501567965442	3
3	4064	70.503867965442	1
3	4090	71.002351812158	3
3	4093	71.004651812158	1
3	4116	71.502964200142	3
3	4119	71.505264200142	1
3	4145	72.003371977313	3
3	4148	72.005671977313	1
3	4171	72.502572431086	3
3	4174	72.504872431086	1
3	4202	73.003411396312	3
3	4205	73.005711396312	1
3	4228	73.503839878909	3
3	4231	73.506139878909	1
3	4257	74.004837572915	3
3	4260	74.007137572915	1
3	4283	74.504136469524	3
3	4286	74.506436469524	1
3	4312	75.004872721645	3
3	4315	75.007172721645	1
3	4340	75.504197707508	3
3	4343	75.506497707508	1
3	4369	76.004428826643	3
3	4372	76.006728826643	1
3	4395	76.503676466608	3
3	4398	76.505976466608	1
3	4424	77.004372483063	3
3	4427	77.006672483063	1
3	4450	77.504987120984	3
3	4453	77.507287120984	1
3	4481	78.005125322473	3
3	4484	78.007425322473	1
3	4507	78.504939689068	3
3	4510	78.507239689068	1
3	4536	79.004078023048	3
3	4539	79.006378023048	1
3	4562	79.504472880593	3
3	4565	79.506772880593	1
3	4591	80.004379965953	3
3	4594	80.006679965953	1
3	4618	80.504824077163	3
3	4622	80.507124077163	1
3	4648	81.005556841815	3
3	4651	81.007856841815	1
3	4674	81.506507884839	3
3	4677	81.508807884839	1
3	4703	82.007219491525	3
3	4706	82.009519491525	1
3	4729	82.506242919688	3
3	4732	82.508542919688	1
3	4758	83.005962875806	3
3	4761	83.008262875806	1
3	4786	83.506422856929	3
3	4789	83.508722856929	1
3	4815	84.005766116284	3
3	4818	84.008066116284	1
3	4841	84.50580818949	3
3	4844	84.50810818949	1
3	4870	85.004916865462	3
3	4873	85.007216865462	1
3	4896	85.504316858513	3
3	4899	85.506616858513	1
3	4925	86.003353902101	3
3	4929	86.005653902101	1
3	4953	86.503941297506	3
3	4956	86.506241297506	1
3	4982	87.003389146871	3
3	4985	87.005689146871	1
3	5008	87.503079850228	3
3	5011	87.505379850228	1
3	5037	88.003936012813	3
3	5040	88.006236012813	1
3	5063	88.504344841612	3
3	5066	88.506644841612	1
3	5094	89.00340851946	3
3	5097	89.00570851946	1
3	5120	89.502737907773	3
3	5123	89.505037907773	1
3	5149	90.002980864586	3
3	5152	90.005280864586	1
3	5175	90.503135321757	3
3	5178	90.505435321757	1
3	5204	91.002611107387	3
3	5207	91.004911107387	1
3	5231	91.503479535391	3
3	5235	91.505779535391	1
3	5261	92.003707467296	3
3	5264	92.006007467296	1
3	5287	92.503778732891	3
3	5290	92.506078732891	1
3	5316	93.003958552846	3
3	5319	93.006258552846	1
3	5342	93.504418796899	3
3	5345	93.506718796899	1
3	5371	94.00404268689	3
3	5374	94.00634268689	1
3	5399	94.503839129025	3
3	5402	94.506139129025	1
3	5428	95.003258816533	3
3	5431	95.005558816533	1
3	5454	95.502631202544	3
3	5457	95.504931202544	1
3	5483	96.003519947321	3
3	5486	96.005819947321	1
3	5509	96.503999048914	3
3	5512	96.506299048914	1
3	5539	97.003979966518	3
3	5543	97.006279966518	1
3	5566	97.503434795776	3
3	5569	97.505734795776	1
3	5595	98.002943508742	3
3	5598	98.005243508742	1
3	5621	98.502059567067	3
3	5624	98.504359567067	1
3	5650	99.001928400325	3
3	5653	99.004228400325	1
3	5676	99.501551992079	3
3	5679	99.503851992079	1
3	5706	100.00194467905	3
3	5710	100.00424467905	1
3	5733	100.501700182725	3
3	5736	100.504000182725	1
3	5762	101.00105939008	3
3	5765	101.00335939008	1
3	5788	101.500108747538	3
3	5791	101.502408747538	1
3	5814	101.9992432468	3
3	5820	102.0015432468	1
3	5843	102.499602032352	3
3	5846	102.501902032352	1
3	5869	102.999509426031	3
3	5876	103.001809426031	1
3	5900	103.499582584448	3
3	5903	103.501882584448	1
3	5929	104.000375927029	3
3	5932	104.002675927029	1
3	5955	104.501356604921	3
3	5958	104.503656604921	1
3	5984	105.000790398883	3
3	5987	105.003090398883	1
3	6010	105.50111655529	3
3	6013	105.50341655529	1
3	6041	106.000643200046	3
3	6044	106.002943200046	1
3	6067	106.499684502055	3
3	6070	106.501984502055	1
3	6096	107.000201259359	3
3	6099	107.002501259359	1
3	6122	107.499841293649	3
3	6125	107.502141293649	1
3	6148	107.999608221431	3
3	6154	108.001908221431	1
3	6178	108.499784855666	3
3	6182	108.502084855666	1
3	6208	109.000446952581	3
3	6211	109.002746952581	1
3	6234	109.500704916279	3
3	6237	109.503004916279	1
3	6263	110.001450217594	3
3	6266	110.003750217594	1
3	6289	110.500997301661	3
3	6292	110.503297301661	1
3	6318	111.001593395322	3
3	6321	111.003893395322	1
3	6346	111.500964667208	3
3	6349	111.503264667208	1
3	6375	112.001870250524	3
3	6378	112.004170250524	1
3	6401	112.50224522707	3
3	6404	112.50454522707	1
3	6430	113.001676242426	3
3	6433	113.003976242426	1
3	6456	113.502570983615	3
3	6459	113.504870983615	1
3	6487	114.00303269522	3
3	6490	114.00533269522	1
3	6513	114.502540578511	3
3	6516	114.504840578511	1
3	6542	115.001967202461	3
3	6545	115.004267202461	1
3	6568	115.502003603884	3
3	6571	115.504303603884	1
3	6597	116.001054929311	3
3	6600	116.003354929311	1
3	6624	116.500469869468	3
3	6628	116.502769869468	1
3	6654	117.000319240398	3
3	6657	117.002619240398	1
3	6680	117.500067580355	3
3	6683	117.502367580355	1
3	6706	117.999994731201	3
3	6712	118.002294731201	1
3	6735	118.499549988618	3
3	6738	118.501849988618	1
3	6761	118.999723557309	3
3	6767	119.002023557309	1
3	6791	119.500451268512	3
3	6795	119.502751268512	1
3	6818	119.999686332227	3
3	6824	120.001986332227	1
3	6847	120.497673090449	3
3	6850	120.497925090449	1
3	6866	120.500226215049	3
3	6869	120.500478215049	1
3	6886	120.500731426103	3
3	6889	120.503031426103	1
3	6916	120.998985226668	3
3	6922	121.001285226668	1
3	6945	121.499418946028	3
3	6948	121.501718946028	1
3	6971	121.999211065436	3
3	6977	122.001511065436	1
3	7001	122.499341908051	3
3	7005	122.501641908051	1
3	7028	122.99870846773	3
3	7034	123.00100846773	1
3	7057	123.497998163255	3
3	7060	123.500298163255	1
3	7083	123.997974275824	3
3	7089	124.000274275824	1
3	7112	124.497685501294	3
3	7115	124.499985501294	1
3	7138	124.998566365197	3
3	7144	125.000866365197	1
3	7168	125.499097015702	3
3	7172	125.501397015702	1
3	7195	125.999594342951	3
3	7201	126.001894342951	1
3	7224	126.50040178243	3
3	7227	126.50270178243	1
3	7250	126.999568627299	3
3	7256	127.001868627299	1
3	7279	127.499673012242	3
3	7282	127.501973012242	1
3	7305	127.999841964387	3
3	7311	128.002141964387	1
3	7336	128.500765837154	3
3	7339	128.503065837154	1
3	7365	129.000350132215	3
3	7368	129.002650132215	1
3	7391	129.499831789769	3
3	7394	129.502131789769	1
3	7417	129.999032377658	3
3	7423	130.001332377658	1
3	7446	130.498065236921	3
3	7449	130.500365236921	1
3	7473	130.998924295557	3
3	7480	131.001224295557	1
3	7503	131.499264128641	3
3	7506	131.501564128641	1
3	7529	131.999834434462	3
3	7535	132.002134434462	1
3	7558	132.49939789467	3
3	7561	132.50169789467	1
3	7584	132.99957071501	3
3	7590	133.00187071501	1
3	7613	133.498698625542	3
3	7616	133.500998625542	1
3	7640	133.998669880729	3
3	7647	134.000969880729	1
3	7670	134.499624871	3
3	7673	134.501924871	1
3	7699	135.000377881485	3
3	7702	135.002677881485	1
3	7725	135.500054199397	3
3	7728	135.502354199397	1
3	7754	136.000977339712	3
3	7757	136.003277339712	1
3	7780	136.500440742963	3
3	7783	136.502740742963	1
3	7811	137.001339380607	3
3	7814	137.003639380607	1
3	7837	137.502222136017	3
3	7840	137.504522136017	1
3	7866	138.002820541186	3
3	7869	138.005120541186	1
3	7892	138.503081437057	3
3	7895	138.505381437057	1
3	7921	139.003830012997	3
3	7924	139.006130012997	1
3	7949	139.503416053565	3
3	7952	139.505716053565	1
3	7978	140.004113940673	3
3	7981	140.006413940673	1
3	8004	140.504349694057	3
3	8007	140.506649694057	1
3	8033	141.003376167771	3
3	8036	141.005676167771	1
3	8059	141.503070634794	3
3	8062	141.505370634794	1
3	8089	142.002366916514	3
3	8093	142.004666916514	1
3	8116	142.503330575288	3
3	8119	142.505630575288	1
3	8145	143.003287315901	3
3	8148	143.005587315901	1
3	8171	143.503282098636	3
3	8174	143.505582098636	1
3	8200	144.003561043669	3
3	8203	144.005861043669	1
3	8226	144.503298212875	3
3	8229	144.505598212875	1
3	8257	145.002572013423	3
3	8260	145.004872013423	1
3	8283	145.503216248893	3
3	8286	145.505516248893	1
3	8312	146.002595944721	3
3	8315	146.004895944721	1
3	8338	146.502618582686	3
3	8341	146.504918582686	1
3	8367	147.002067216734	3
3	8370	147.004367216734	1
3	8394	147.501262905706	3
3	8398	147.503562905706	1
3	8424	148.001987288734	3
3	8427	148.004287288734	1
3	8450	148.502933127714	3
3	8453	148.505233127714	1
3	8479	149.003854797023	3
3	8482	149.006154797023	1
3	8505	149.504667908019	3
3	8508	149.506967908019	1
4	0	0	1
4	18	0.003575946825	2
4	21	0.003923946825	1
4	90	0.012598639105	2
4	96	0.012850639105	1
4	112	0.013183763705	2
4	118	0.015483763705	1
4	148	0.500185689233	2
4	151	0.502485689233	1
4	177	1.000275455588	2
4	180	1.002575455588	1
4	203	1.500122765182	2
4	206	1.502422765182	1
4	232	2.000414553412	2
4	235	2.002714553412	1
4	258	2.500289727832	2
4	261	2.502589727832	1
4	287	3.001073273836	2
4	290	3.003373273836	1
4	315	3.502000599364	2
4	318	3.504300599364	1
4	344	4.001767482407	2
4	347	4.004067482407	1
4	370	4.502350932474	2
4	373	4.504650932474	1
4	399	5.002408722317	2
4	402	5.004708722317	1
4	426	5.502544811445	2
4	429	5.504844811445	1
4	457	6.003396004711	2
4	460	6.005696004711	1
4	483	6.502538076828	2
4	486	6.504838076828	1
4	512	7.001712335422	2
4	515	7.004012335422	1
4	538	7.50075277222	2
4	541	7.50305277222	1
4	567	8.001418011906	2
4	570	8.003718011906	1
4	593	8.50197432542	2
4	597	8.50427432542	1
4	624	9.002714349711	2
4	627	9.005014349711	1
4	650	9.503671586397	2
4	653	9.505971586397	1
4	679	10.004269903525	2
4	682	10.006569903525	1
4	705	10.504192862251	2
4	708	10.506492862251	1
4	734	11.004753920602	2
4	737	11.007053920602	1
4	761	11.50399046945	2
4	765	11.50629046945	1
4	791	12.004270311484	2
4	794	12.006570311484	1
4	817	12.503557018055	2
4	820	12.505857018055	1
4	846	13.004446355892	2
4	849	13.006746355892	1
4	872	13.504490052548	2
4	875	13.506790052548	1
4	901	14.00431937643	2
4	905	14.00661937643	1
4	929	14.503848487653	2
4	932	14.506148487653	1
4	958	15.004396955026	2
4	961	15.006696955026	1
4	984	15.504309255698	2
4	987	15.506609255698	1
4	1013	16.004446123595	2
4	1016	16.006746123595	1
4	1039	16.503483703191	2
4	1042	16.505783703191	1
4	1068	17.003718974193	2
4	1072	17.006018974193	1
4	1096	17.503943165638	2
4	1099	17.506243165638	1
4	1125	18.004177033635	2
4	1128	18.006477033635	1
4	1152	18.505064529786	2
4	1155	18.507364529786	1
4	1181	19.005428170382	2
4	1184	19.007728170382	1
4	1207	19.505147186186	2
4	1210	19.507447186186	1
4	1237	20.005021250091	2
4	1241	20.007321250091	1
4	1265	20.505416512482	2
4	1268	20.507716512482	1
4	1294	21.004536963415	2
4	1297	21.006836963415	1
4	1320	21.504870496838	2
4	1323	21.507170496838	1
4	1349	22.005211772585	2
4	1352	22.007511772585	1
4	1375	22.504632537708	2
4	1379	22.506932537708	1
4	1406	23.003890390305	2
4	1409	23.006190390305	1
4	1432	23.503521247004	2
4	1435	23.505821247004	1
4	1461	24.003248668551	2
4	1464	24.005548668551	1
4	1487	24.503389062103	2
4	1490	24.505689062103	1
4	1516	25.00326626513	2
4	1519	25.00556626513	1
4	1542	25.504243012794	2
4	1546	25.506543012794	1
4	1573	26.003447102408	2
4	1576	26.005747102408	1
4	1599	26.502864855925	2
4	1602	26.505164855925	1
4	1628	27.002187474947	2
4	1631	27.004487474947	1
4	1654	27.502493691591	2
4	1657	27.504793691591	1
4	1683	28.002000274794	2
4	1686	28.004300274794	1
4	1709	28.50193289634	2
4	1712	28.50423289634	1
4	1740	29.001421747516	2
4	1743	29.003721747516	1
4	1766	29.500739686689	2
4	1769	29.503039686689	1
4	1792	29.999960436967	2
4	1798	30.002260436967	1
4	1821	30.500273096151	2
4	1824	30.502573096151	1
4	1847	30.99954946205	2
4	1853	31.00184946205	1
4	1876	31.498942626763	2
4	1879	31.501242626763	1
4	1904	31.998680077094	2
4	1910	32.000980077094	1
4	1933	32.499322063556	2
4	1936	32.501622063556	1
4	1959	32.998516266098	2
4	1965	33.000816266098	1
4	1988	33.499192155911	2
4	1991	33.501492155911	1
4	2014	33.998384352713	2
4	2020	34.000684352713	1
4	2044	34.499337271643	2
4	2048	34.501637271643	1
4	2071	34.99927457404	2
4	2077	35.00157457404	1
4	2100	35.500228096222	2
4	2103	35.502528096222	1
4	2129	36.000437787258	2
4	2132	36.002737787258	1
4	2155	36.500916314421	2
4	2158	36.503216314421	1
4	2182	36.999994689999	2
4	2189	37.002294689999	1
4	2212	37.499560303918	2
4	2215	37.501860303918	1
4	2238	37.998800697047	2
4	2244	38.001100697047	1
4	2267	38.498392977446	2
4	2270	38.500692977446	1
4	2293	38.997630432875	2
4	2296	38.999930432875	1
4	2322	39.497266399222	2
4	2325	39.499566399222	1
4	2350	39.997094925199	2
4	2353	39.999394925199	1
4	2379	40.496223220201	2
4	2382	40.498523220201	1
4	2405	40.99660816444	2
4	2408	40.99890816444	1
4	2434	41.496741367337	2
4	2437	41.499041367337	1
4	2460	41.996272146319	2
4	2463	41.998572146319	1
4	2489	42.496318642425	2
4	2493	42.498618642425	1
4	2517	42.995506523437	2
4	2520	42.997806523437	1
4	2546	43.495658416427	2
4	2549	43.497958416427	1
4	2572	43.996517008823	2
4	2575	43.998817008823	1
4	2601	44.496154146733	2
4	2604	44.498454146733	1
4	2627	44.996488967485	2
4	2630	44.998788967485	1
4	2656	45.495752563209	2
4	2660	45.498052563209	1
4	2684	45.996185217605	2
4	2687	45.998485217605	1
4	2713	46.495764029787	2
4	2716	46.498064029787	1
4	2739	46.995130412514	2
4	2742	46.997430412514	1
4	2768	47.49530343838	2
4	2771	47.49760343838	1
4	2794	47.994343653481	2
4	2797	47.996643653481	1
4	2823	48.495001533538	2
4	2827	48.497301533538	1
4	2851	48.994010924502	2
4	2854	48.996310924502	1
4	2880	49.494366557581	2
4	2883	49.496666557581	1
4	2906	49.993906573518	2
4	2909	49.996206573518	1
4	2935	50.494376961559	2
4	2938	50.496676961559	1
4	2961	50.995301338649	2
4	2964	50.997601338649	1
4	2990	51.494798844928	2
4	2994	51.497098844928	1
4	3018	51.9949511596	2
4	3021	51.9972511596	1
4	3047	52.495135243453	2
4	3050	52.497435243453	1
4	3073	52.995279747256	2
4	3076	52.997579747256	1
4	3102	53.494725910517	2
4	3105	53.497025910517	1
4	3128	53.995631408535	2
4	3131	53.997931408535	1
4	3158	54.495525659292	2
4	3162	54.497825659292	1
4	3185	54.996218476624	2
4	3188	54.998518476624	1
4	3214	55.496617435179	2
4	3217	55.498917435179	1
4	3240	55.996212309082	2
4	3243	55.998512309082	1
4	3269	56.496839904721	2
4	3272	56.499139904721	1
4	3296	56.996632916199	2
4	3300	56.998932916199	1
4	3326	57.497395122601	2
4	3329	57.499695122601	1
4	3352	57.997557668353	2
4	3355	57.999857668353	1
4	3381	58.498321139072	2
4	3384	58.500621139072	1
4	3407	58.998706202255	2
4	3413	59.001006202255	1
4	3438	59.499156710818	2
4	3441	59.501456710818	1
4	3464	59.999159359584	2
4	3470	60.001459359584	1
4	3493	60.500071526864	2
4	3496	60.502371526864	1
4	3522	61.000359507257	2
4	3525	61.002659507257	1
4	3548	61.500207217345	2
4	3551	61.502507217345	1
4	3578	62.000420003779	2
4	3582	62.002720003779	1
4	3605	62.49945839018	2
4	3608	62.50175839018	1
4	3631	62.999061539812	2
4	3637	63.001361539812	1
4	3660	63.499381886889	2
4	3663	63.501681886889	1
4	3686	63.998962042109	2
4	3692	64.001262042109	1
4	3715	64.499198072963	2
4	3719	64.501498072963	1
4	3743	64.99905561036	2
4	3749	65.00135561036	1
4	3772	65.498326558497	2
4	3775	65.500626558497	1
4	3798	65.997923123153	2
4	3804	66.000223123153	1
4	3827	66.498063052976	2
4	3830	66.500363052976	1
4	3853	66.998244798502	2
4	3859	67.000544798502	1
4	3882	67.498393449014	2
4	3886	67.500693449014	1
4	3910	67.998699850645	2
4	3916	68.000999850645	1
4	3939	68.499004057194	2
4	3942	68.501304057194	1
4	3965	68.998866894063	2
4	3971	69.001166894063	1
4	3994	69.49965998726	2
4	3997	69.50195998726	1
4	4020	69.999395111003	2
4	4026	70.001695111003	1
4	4050	70.499266840842	2
4	4054	70.501566840842	1
4	4080	71.000050687558	2
4	4083	71.002350687558	1
4	4106	71.500663075542	2
4	4109	71.502963075542	1
4	4135	72.001070852713	2
4	4138	72.003370852713	1
4	4161	72.500271306486	2
4	4164	72.502571306486	1
4	4191	73.001110271712	2
4	4195	73.003410271712	1
4	4218	73.501538754309	2
4	4221	73.503838754309	1
4	4247	74.002536448315	2
4	4250	74.004836448315	1
4	4273	74.501835344924	2
4	4276	74.504135344924	1
4	4302	75.002571597045	2
4	4305	75.004871597045	1
4	4329	75.501896582908	2
4	4333	75.504196582908	1
4	4359	76.002127702043	2
4	4362	76.004427702043	1
4	4385	76.501375342008	2
4	4388	76.503675342008	1
4	4414	77.002071358463	2
4	4417	77.004371358463	1
4	4440	77.502685996384	2
4	4443	77.504985996384	1
4	4470	78.002824197873	2
4	4474	78.005124197873	1
4	4497	78.502638564468	2
4	4500	78.504938564468	1
4	4526	79.001776898448	2
4	4529	79.004076898448	1
4	4552	79.502171755993	2
4	4555	79.504471755993	1
4	4581	80.002078841353	2
4	4584	80.004378841353	1
4	4607	80.502522952563	2
4	4611	80.504822952563	1
4	4638	81.003255717215	2
4	4641	81.005555717215	1
4	4664	81.504206760239	2
4	4667	81.506506760239	1
4	4693	82.004918366925	2
4	4696	82.007218366925	1
4	4719	82.503941795088	2
4	4722	82.506241795088	1
4	4748	83.003661751206	2
4	4751	83.005961751206	1
4	4775	83.504121732329	2
4	4779	83.506421732329	1
4	4805	84.003464991684	2
4	4808	84.005764991684	1
4	4831	84.50350706489	2
4	4834	84.50580706489	1
4	4860	85.002615740862	2
4	4863	85.004915740862	1
4	4886	85.502015733913	2
4	4889	85.504315733913	1
4	4915	86.001052777501	2
4	4918	86.003352777501	1
4	4943	86.501640172906	2
4	4946	86.503940172906	1
4	4972	87.001088022271	2
4	4975	87.003388022271	1
4	4998	87.500778725628	2
4	5001	87.503078725628	1
4	5027	88.001634888213	2
4	5030	88.003934888213	1
4	5053	88.502043717012	2
4	5056	88.504343717012	1
4	5083	89.00110739486	2
4	5087	89.00340739486	1
4	5110	89.500436783173	2
4	5113	89.502736783173	1
4	5139	90.000679739986	2
4	5142	90.002979739986	1
4	5165	90.500834197157	2
4	5168	90.503134197157	1
4	5194	91.000309982787	2
4	5197	91.002609982787	1
4	5220	91.501178410791	2
4	5224	91.503478410791	1
4	5251	92.001406342696	2
4	5254	92.003706342696	1
4	5277	92.501477608291	2
4	5280	92.503777608291	1
4	5306	93.001657428246	2
4	5309	93.003957428246	1
4	5332	93.502117672299	2
4	5335	93.504417672299	1
4	5361	94.00174156229	2
4	5364	94.00404156229	1
4	5388	94.501538004425	2
4	5392	94.503838004425	1
4	5418	95.000957691933	2
4	5421	95.003257691933	1
4	5444	95.500330077944	2
4	5447	95.502630077944	1
4	5473	96.001218822721	2
4	5476	96.003518822721	1
4	5499	96.501697924314	2
4	5502	96.503997924314	1
4	5528	97.001678841918	2
4	5532	97.003978841918	1
4	5556	97.501133671176	2
4	5559	97.503433671176	1
4	5585	98.000642384142	2
4	5588	98.002942384142	1
4	5611	98.499758442467	2
4	5614	98.502058442467	1
4	5637	98.999627275725	2
4	5643	99.001927275725	1
4	5666	99.499250867479	2
4	5669	99.501550867479	1
4	5692	99.99964355445	2
4	5699	100.00194355445	1
4	5723	100.499399058125	2
4	5726	100.501699058125	1
4	5749	100.99875826548	2
4	5755	101.00105826548	1
4	5778	101.497807622938	2
4	5781	101.500107622938	1
4	5804	101.9969421222	2
4	5807	101.9992421222	1
4	5833	102.497300907752	2
4	5836	102.499600907752	1
4	5859	102.997208301431	2
4	5862	102.999508301431	1
4	5890	103.497281459848	2
4	5893	103.499581459848	1
4	5916	103.998074802429	2
4	5922	104.000374802429	1
4	5945	104.499055480321	2
4	5948	104.501355480321	1
4	5971	104.998489274283	2
4	5977	105.000789274283	1
4	6000	105.49881543069	2
4	6003	105.50111543069	1
4	6027	105.998342075446	2
4	6034	106.000642075446	1
4	6057	106.497383377455	2
4	6060	106.499683377455	1
4	6083	106.997900134759	2
4	6089	107.000200134759	1
4	6112	107.497540169049	2
4	6115	107.499840169049	1
4	6138	107.997307096831	2
4	6141	107.999607096831	1
4	6167	108.497483731066	2
4	6171	108.499783731066	1
4	6195	108.998145827981	2
4	6201	109.000445827981	1
4	6224	109.498403791679	2
4	6227	109.500703791679	1
4	6250	109.999149092994	2
4	6256	110.001449092994	1
4	6279	110.498696177061	2
4	6282	110.500996177061	1
4	6305	110.999292270722	2
4	6311	111.001592270722	1
4	6335	111.498663542608	2
4	6339	111.500963542608	1
4	6362	111.999569125924	2
4	6368	112.001869125924	1
4	6391	112.49994410247	2
4	6394	112.50224410247	1
4	6417	112.999375117826	2
4	6423	113.001675117826	1
4	6446	113.500269859015	2
4	6449	113.502569859015	1
4	6476	114.00073157062	2
4	6480	114.00303157062	1
4	6503	114.500239453911	2
4	6506	114.502539453911	1
4	6529	114.999666077861	2
4	6535	115.001966077861	1
4	6558	115.499702479284	2
4	6561	115.502002479284	1
4	6584	115.998753804711	2
4	6590	116.001053804711	1
4	6613	116.498168744868	2
4	6617	116.500468744868	1
4	6641	116.998018115798	2
4	6647	117.000318115798	1
4	6670	117.497766455755	2
4	6673	117.500066455755	1
4	6696	117.997693606601	2
4	6699	117.999993606601	1
4	6725	118.497248864018	2
4	6728	118.499548864018	1
4	6751	118.997422432709	2
4	6754	118.999722432709	1
4	6780	119.498150143912	2
4	6784	119.500450143912	1
4	6808	119.997385207627	2
4	6811	119.999685207627	1
4	6837	120.497419965849	2
4	6840	120.497671965849	1
4	6854	120.497925090449	2
4	6859	120.500225090449	1
4	6906	120.996684102068	2
4	6909	120.998984102068	1
4	6935	121.497117821428	2
4	6938	121.499417821428	1
4	6961	121.996909940836	2
4	6964	121.999209940836	1
4	6990	122.497040783451	2
4	6994	122.499340783451	1
4	7018	122.99640734313	2
4	7021	122.99870734313	1
4	7047	123.495697038655	2
4	7050	123.497997038655	1
4	7073	123.995673151224	2
4	7076	123.997973151224	1
4	7102	124.495384376694	2
4	7105	124.497684376694	1
4	7128	124.996265240597	2
4	7131	124.998565240597	1
4	7157	125.496795891102	2
4	7161	125.499095891102	1
4	7185	125.997293218351	2
4	7188	125.999593218351	1
4	7214	126.49810065783	2
4	7217	126.50040065783	1
4	7240	126.997267502699	2
4	7243	126.999567502699	1
4	7269	127.497371887642	2
4	7272	127.499671887642	1
4	7295	127.997540839787	2
4	7298	127.999840839787	1
4	7325	128.498464712554	2
4	7329	128.500764712554	1
4	7352	128.998049007615	2
4	7358	129.000349007615	1
4	7381	129.497530665169	2
4	7384	129.499830665169	1
4	7407	129.996731253058	2
4	7410	129.999031253058	1
4	7436	130.495764112321	2
4	7439	130.498064112321	1
4	7462	130.996623170957	2
4	7466	130.998923170957	1
4	7493	131.496963004041	2
4	7496	131.499263004041	1
4	7519	131.997533309862	2
4	7522	131.999833309862	1
4	7548	132.49709677007	2
4	7551	132.49939677007	1
4	7574	132.99726959041	2
4	7577	132.99956959041	1
4	7603	133.496397500942	2
4	7606	133.498697500942	1
4	7629	133.996368756129	2
4	7633	133.998668756129	1
4	7660	134.4973237464	2
4	7663	134.4996237464	1
4	7686	134.998076756885	2
4	7692	135.000376756885	1
4	7715	135.497753074797	2
4	7718	135.500053074797	1
4	7741	135.998676215112	2
4	7747	136.000976215112	1
4	7770	136.498139618363	2
4	7773	136.500439618363	1
4	7798	136.999038256007	2
4	7804	137.001338256007	1
4	7827	137.499921011417	2
4	7830	137.502221011417	1
4	7856	138.000519416586	2
4	7859	138.002819416586	1
4	7882	138.500780312457	2
4	7885	138.503080312457	1
4	7911	139.001528888397	2
4	7914	139.003828888397	1
4	7939	139.501114928965	2
4	7942	139.503414928965	1
4	7968	140.001812816073	2
4	7971	140.004112816073	1
4	7994	140.502048569457	2
4	7997	140.504348569457	1
4	8023	141.001075043171	2
4	8026	141.003375043171	1
4	8049	141.500769510194	2
4	8052	141.503069510194	1
4	8078	142.000065791914	2
4	8082	142.002365791914	1
4	8106	142.501029450688	2
4	8109	142.503329450688	1
4	8135	143.000986191301	2
4	8138	143.003286191301	1
4	8161	143.500980974036	2
4	8164	143.503280974036	1
4	8190	144.001259919069	2
4	8193	144.003559919069	1
4	8216	144.500997088275	2
4	8219	144.503297088275	1
4	8246	145.000270888823	2
4	8250	145.002570888823	1
4	8273	145.500915124293	2
4	8276	145.503215124293	1
4	8302	146.000294820121	2
4	8305	146.002594820121	1
4	8328	146.500317458086	2
4	8331	146.502617458086	1
4	8354	146.999766092134	2
4	8360	147.002066092134	1
4	8383	147.498961781106	2
4	8387	147.501261781106	1
4	8411	147.999686164134	2
4	8417	148.001986164134	1
4	8440	148.500632003114	2
4	8443	148.502932003114	1
4	8469	149.001553672423	2
4	8472	149.003853672423	1
4	8495	149.502366783419	2
4	8498	149.504666783419	1
5	0	0	1
5	34	0.008146443372	3
5	41	0.008494443372	1
5	60	0.008747654426	3
5	64	0.008999654426	1
5	84	0.012346682332	3
5	91	0.012598682332	1
5	104	0.012851806932	3
5	113	0.013183806932	1
5	126	0.015484931532	3
5	130	0.017784931532	1
5	159	0.50248685706	3
5	163	0.50478685706	1
5	188	1.002576623415	3
5	192	1.004876623415	1
5	214	1.502423933009	3
5	218	1.504723933009	1
5	243	2.002715721239	3
5	247	2.005015721239	1
5	269	2.502590895659	3
5	273	2.504890895659	1
5	298	3.003374441663	3
5	302	3.005674441663	1
5	326	3.504301767191	3
5	330	3.506601767191	1
5	355	4.004068650234	3
5	359	4.006368650234	1
5	381	4.504652100301	3
5	385	4.506952100301	1
5	410	5.004709890144	3
5	414	5.007009890144	1
5	437	5.504845979272	3
5	441	5.507145979272	1
5	468	6.005697172538	3
5	472	6.007997172538	1
5	494	6.504839244655	3
5	498	6.507139244655	1
5	523	7.004013503249	3
5	527	7.006313503249	1
5	549	7.503053940047	3
5	553	7.505353940047	1
5	578	8.003719179733	3
5	582	8.006019179733	1
5	605	8.504275493247	3
5	610	8.506575493247	1
5	635	9.005015517538	3
5	639	9.007315517538	1
5	661	9.505972754224	3
5	665	9.508272754224	1
5	690	10.006571071352	3
5	694	10.008871071352	1
5	716	10.506494030078	3
5	720	10.508794030078	1
5	745	11.007055088429	3
5	749	11.009355088429	1
5	773	11.506291637277	3
5	777	11.508591637277	1
5	802	12.006571479311	3
5	806	12.008871479311	1
5	828	12.505858185882	3
5	832	12.508158185882	1
5	857	13.006747523719	3
5	861	13.009047523719	1
5	883	13.506791220375	3
5	887	13.509091220375	1
5	913	14.006620544257	3
5	918	14.008920544257	1
5	940	14.50614965548	3
5	944	14.50844965548	1
5	969	15.006698122853	3
5	973	15.008998122853	1
5	995	15.506610423525	3
5	999	15.508910423525	1
5	1024	16.006747291422	3
5	1028	16.009047291422	1
5	1050	16.505784871018	3
5	1054	16.508084871018	1
5	1080	17.00602014202	3
5	1085	17.00832014202	1
5	1107	17.506244333465	3
5	1111	17.508544333465	1
5	1136	18.006478201462	3
5	1141	18.008778201462	1
5	1163	18.507365697613	3
5	1167	18.509665697613	1
5	1192	19.007729338209	3
5	1196	19.010029338209	1
5	1218	19.507448354013	3
5	1222	19.509748354013	1
5	1249	20.007322417918	3
5	1253	20.009622417918	1
5	1276	20.507717680309	3
5	1280	20.510017680309	1
5	1305	21.006838131242	3
5	1309	21.009138131242	1
5	1331	21.507171664665	3
5	1335	21.509471664665	1
5	1360	22.007512940412	3
5	1364	22.009812940412	1
5	1387	22.506933705535	3
5	1392	22.509233705535	1
5	1417	23.006191558132	3
5	1421	23.008491558132	1
5	1443	23.505822414831	3
5	1447	23.508122414831	1
5	1472	24.005549836378	3
5	1476	24.007849836378	1
5	1498	24.50569022993	3
5	1502	24.50799022993	1
5	1527	25.005567432957	3
5	1531	25.007867432957	1
5	1554	25.506544180621	3
5	1559	25.508844180621	1
5	1584	26.005748270235	3
5	1588	26.008048270235	1
5	1610	26.505166023752	3
5	1614	26.507466023752	1
5	1639	27.004488642774	3
5	1643	27.006788642774	1
5	1665	27.504794859418	3
5	1669	27.507094859418	1
5	1694	28.004301442621	3
5	1698	28.006601442621	1
5	1720	28.504234064167	3
5	1725	28.506534064167	1
5	1751	29.003722915343	3
5	1755	29.006022915343	1
5	1777	29.503040854516	3
5	1781	29.505340854516	1
5	1806	30.002261604794	3
5	1810	30.004561604794	1
5	1832	30.502574263978	3
5	1836	30.504874263978	1
5	1861	31.001850629877	3
5	1865	31.004150629877	1
5	1887	31.50124379459	3
5	1892	31.50354379459	1
5	1918	32.000981244921	3
5	1922	32.003281244921	1
5	1944	32.501623231383	3
5	1948	32.503923231383	1
5	1973	33.000817433925	3
5	1977	33.003117433925	1
5	1999	33.501493323738	3
5	2003	33.503793323738	1
5	2028	34.00068552054	3
5	2032	34.00298552054	1
5	2056	34.50163843947	3
5	2060	34.50393843947	1
5	2085	35.001575741867	3
5	2089	35.003875741867	1
5	2111	35.502529264049	3
5	2115	35.504829264049	1
5	2140	36.002738955085	3
5	2144	36.005038955085	1
5	2166	36.503217482248	3
5	2170	36.505517482248	1
5	2197	37.002295857826	3
5	2201	37.004595857826	1
5	2223	37.501861471745	3
5	2227	37.504161471745	1
5	2252	38.001101864874	3
5	2256	38.003401864874	1
5	2278	38.500694145273	3
5	2282	38.502994145273	1
5	2304	38.999931600702	3
5	2311	39.002231600702	1
5	2333	39.499567567049	3
5	2338	39.501867567049	1
5	2361	39.999396093026	3
5	2368	40.001696093026	1
5	2390	40.498524388028	3
5	2394	40.500824388028	1
5	2416	40.998909332267	3
5	2423	41.001209332267	1
5	2445	41.499042535164	3
5	2449	41.501342535164	1
5	2471	41.998573314146	3
5	2478	42.000873314146	1
5	2501	42.498619810252	3
5	2506	42.500919810252	1
5	2528	42.997807691264	3
5	2535	43.000107691264	1
5	2557	43.497959584254	3
5	2561	43.500259584254	1
5	2583	43.99881817665	3
5	2590	44.00111817665	1
5	2612	44.49845531456	3
5	2616	44.50075531456	1
5	2638	44.998790135312	3
5	2645	45.001090135312	1
5	2668	45.498053731036	3
5	2673	45.500353731036	1
5	2695	45.998486385432	3
5	2702	46.000786385432	1
5	2724	46.498065197614	3
5	2728	46.500365197614	1
5	2750	46.997431580341	3
5	2754	46.999731580341	1
5	2779	47.497604606207	3
5	2783	47.499904606207	1
5	2805	47.996644821308	3
5	2809	47.998944821308	1
5	2835	48.497302701365	3
5	2840	48.499602701365	1
5	2862	48.996312092329	3
5	2866	48.998612092329	1
5	2891	49.496667725408	3
5	2895	49.498967725408	1
5	2917	49.996207741345	3
5	2921	49.998507741345	1
5	2946	50.496678129386	3
5	2950	50.498978129386	1
5	2972	50.997602506476	3
5	2976	50.999902506476	1
5	3002	51.497100012755	3
5	3007	51.499400012755	1
5	3029	51.997252327427	3
5	3033	51.999552327427	1
5	3058	52.49743641128	3
5	3062	52.49973641128	1
5	3084	52.997580915083	3
5	3088	52.999880915083	1
5	3113	53.497027078344	3
5	3117	53.499327078344	1
5	3139	53.997932576362	3
5	3146	54.000232576362	1
5	3170	54.497826827119	3
5	3174	54.500126827119	1
5	3196	54.998519644451	3
5	3203	55.000819644451	1
5	3225	55.498918603006	3
5	3229	55.501218603006	1
5	3251	55.998513476909	3
5	3258	56.000813476909	1
5	3280	56.499141072548	3
5	3284	56.501441072548	1
5	3308	56.998934084026	3
5	3315	57.001234084026	1
5	3337	57.499696290428	3
5	3341	57.501996290428	1
5	3363	57.99985883618	3
5	3370	58.00215883618	1
5	3392	58.500622306899	3
5	3396	58.502922306899	1
5	3421	59.001007370082	3
5	3425	59.003307370082	1
5	3449	59.501457878645	3
5	3453	59.503757878645	1
5	3478	60.001460527411	3
5	3482	60.003760527411	1
5	3504	60.502372694691	3
5	3508	60.504672694691	1
5	3533	61.002660675084	3
5	3537	61.004960675084	1
5	3559	61.502508385172	3
5	3563	61.504808385172	1
5	3590	62.002721171606	3
5	3594	62.005021171606	1
5	3616	62.501759558007	3
5	3620	62.504059558007	1
5	3645	63.001362707639	3
5	3649	63.003662707639	1
5	3671	63.501683054716	3
5	3675	63.503983054716	1
5	3700	64.001263209936	3
5	3704	64.003563209936	1
5	3727	64.50149924079	3
5	3732	64.50379924079	1
5	3757	65.001356778187	3
5	3761	65.003656778187	1
5	3783	65.500627726324	3
5	3787	65.502927726324	1
5	3812	66.00022429098	3
5	3816	66.00252429098	1
5	3838	66.500364220803	3
5	3842	66.502664220803	1
5	3867	67.000545966329	3
5	3871	67.002845966329	1
5	3894	67.500694616841	3
5	3899	67.502994616841	1
5	3924	68.001001018472	3
5	3928	68.003301018472	1
5	3950	68.501305225021	3
5	3954	68.503605225021	1
5	3979	69.00116806189	3
5	3983	69.00346806189	1
5	4005	69.501961155087	3
5	4009	69.504261155087	1
5	4034	70.00169627883	3
5	4038	70.00399627883	1
5	4062	70.501568008669	3
5	4066	70.503868008669	1
5	4091	71.002351855385	3
5	4095	71.004651855385	1
5	4117	71.502964243369	3
5	4121	71.505264243369	1
5	4146	72.00337202054	3
5	4150	72.00567202054	1
5	4172	72.502572474313	3
5	4176	72.504872474313	1
5	4203	73.003411439539	3
5	4207	73.005711439539	1
5	4229	73.503839922136	3
5	4233	73.506139922136	1
5	4258	74.004837616142	3
5	4262	74.007137616142	1
5	4284	74.504136512751	3
5	4288	74.506436512751	1
5	4313	75.004872764872	3
5	4317	75.007172764872	1
5	4341	75.504197750735	3
5	4345	75.506497750735	1
5	4370	76.00442886987	3
5	4374	76.00672886987	1
5	4396	76.503676509835	3
5	4400	76.505976509835	1
5	4425	77.00437252629	3
5	4429	77.00667252629	1
5	4451	77.504987164211	3
5	4455	77.507287164211	1
5	4482	78.0051253657	3
5	4486	78.0074253657	1
5	4508	78.504939732295	3
5	4512	78.507239732295	1
5	4537	79.004078066275	3
5	4541	79.006378066275	1
5	4563	79.50447292382	3
5	4567	79.50677292382	1
5	4592	80.00438000918	3
5	4596	80.00668000918	1
5	4619	80.50482412039	3
5	4624	80.50712412039	1
5	4649	81.005556885042	3
5	4653	81.007856885042	1
5	4675	81.506507928066	3
5	4679	81.508807928066	1
5	4704	82.007219534752	3
5	4708	82.009519534752	1
5	4730	82.506242962915	3
5	4734	82.508542962915	1
5	4759	83.005962919033	3
5	4763	83.008262919033	1
5	4787	83.506422900156	3
5	4791	83.508722900156	1
5	4816	84.005766159511	3
5	4820	84.008066159511	1
5	4842	84.505808232717	3
5	4846	84.508108232717	1
5	4871	85.004916908689	3
5	4875	85.007216908689	1
5	4897	85.50431690174	3
5	4901	85.50661690174	1
5	4926	86.003353945328	3
5	4931	86.005653945328	1
5	4954	86.503941340733	3
5	4958	86.506241340733	1
5	4983	87.003389190098	3
5	4987	87.005689190098	1
5	5009	87.503079893455	3
5	5013	87.505379893455	1
5	5038	88.00393605604	3
5	5042	88.00623605604	1
5	5064	88.504344884839	3
5	5068	88.506644884839	1
5	5095	89.003408562687	3
5	5099	89.005708562687	1
5	5121	89.502737951	3
5	5125	89.505037951	1
5	5150	90.002980907813	3
5	5154	90.005280907813	1
5	5176	90.503135364984	3
5	5180	90.505435364984	1
5	5205	91.002611150614	3
5	5209	91.004911150614	1
5	5232	91.503479578618	3
5	5237	91.505779578618	1
5	5262	92.003707510523	3
5	5266	92.006007510523	1
5	5288	92.503778776118	3
5	5292	92.506078776118	1
5	5317	93.003958596073	3
5	5321	93.006258596073	1
5	5343	93.504418840126	3
5	5347	93.506718840126	1
5	5372	94.004042730117	3
5	5376	94.006342730117	1
5	5400	94.503839172252	3
5	5404	94.506139172252	1
5	5429	95.00325885976	3
5	5433	95.00555885976	1
5	5455	95.502631245771	3
5	5459	95.504931245771	1
5	5484	96.003519990548	3
5	5488	96.005819990548	1
5	5510	96.503999092141	3
5	5514	96.506299092141	1
5	5540	97.003980009745	3
5	5545	97.006280009745	1
5	5567	97.503434839003	3
5	5571	97.505734839003	1
5	5596	98.002943551969	3
5	5600	98.005243551969	1
5	5622	98.502059610294	3
5	5626	98.504359610294	1
5	5651	99.001928443552	3
5	5655	99.004228443552	1
5	5677	99.501552035306	3
5	5681	99.503852035306	1
5	5707	100.001944722277	3
5	5712	100.004244722277	1
5	5734	100.501700225952	3
5	5738	100.504000225952	1
5	5763	101.001059433307	3
5	5767	101.003359433307	1
5	5789	101.500108790765	3
5	5793	101.502408790765	1
5	5815	101.999243290027	3
5	5822	102.001543290027	1
5	5844	102.499602075579	3
5	5848	102.501902075579	1
5	5870	102.999509469258	3
5	5878	103.001809469258	1
5	5901	103.499582627675	3
5	5905	103.501882627675	1
5	5930	104.000375970256	3
5	5934	104.002675970256	1
5	5956	104.501356648148	3
5	5960	104.503656648148	1
5	5985	105.00079044211	3
5	5989	105.00309044211	1
5	6011	105.501116598517	3
5	6015	105.503416598517	1
5	6042	106.000643243273	3
5	6046	106.002943243273	1
5	6068	106.499684545282	3
5	6072	106.501984545282	1
5	6097	107.000201302586	3
5	6101	107.002501302586	1
5	6123	107.499841336876	3
5	6127	107.502141336876	1
5	6149	107.999608264658	3
5	6156	108.001908264658	1
5	6179	108.499784898893	3
5	6184	108.502084898893	1
5	6209	109.000446995808	3
5	6213	109.002746995808	1
5	6235	109.500704959506	3
5	6239	109.503004959506	1
5	6264	110.001450260821	3
5	6268	110.003750260821	1
5	6290	110.500997344888	3
5	6294	110.503297344888	1
5	6319	111.001593438549	3
5	6323	111.003893438549	1
5	6347	111.500964710435	3
5	6351	111.503264710435	1
5	6376	112.001870293751	3
5	6380	112.004170293751	1
5	6402	112.502245270297	3
5	6406	112.504545270297	1
5	6431	113.001676285653	3
5	6435	113.003976285653	1
5	6457	113.502571026842	3
5	6461	113.504871026842	1
5	6488	114.003032738447	3
5	6492	114.005332738447	1
5	6514	114.502540621738	3
5	6518	114.504840621738	1
5	6543	115.001967245688	3
5	6547	115.004267245688	1
5	6569	115.502003647111	3
5	6573	115.504303647111	1
5	6598	116.001054972538	3
5	6602	116.003354972538	1
5	6625	116.500469912695	3
5	6630	116.502769912695	1
5	6655	117.000319283625	3
5	6659	117.002619283625	1
5	6681	117.500067623582	3
5	6685	117.502367623582	1
5	6707	117.999994774428	3
5	6714	118.002294774428	1
5	6736	118.499550031845	3
5	6740	118.501850031845	1
5	6762	118.999723600536	3
5	6769	119.002023600536	1
5	6792	119.500451311739	3
5	6797	119.502751311739	1
5	6819	119.999686375454	3
5	6826	120.001986375454	1
5	6848	120.497673133676	3
5	6855	120.497925133676	1
5	6867	120.500226258276	3
5	6872	120.500478258276	1
5	6887	120.50073146933	3
5	6891	120.50303146933	1
5	6917	120.998985269895	3
5	6924	121.001285269895	1
5	6946	121.499418989255	3
5	6950	121.501718989255	1
5	6972	121.999211108663	3
5	6979	122.001511108663	1
5	7002	122.499341951278	3
5	7007	122.501641951278	1
5	7029	122.998708510957	3
5	7036	123.001008510957	1
5	7058	123.497998206482	3
5	7062	123.500298206482	1
5	7084	123.997974319051	3
5	7091	124.000274319051	1
5	7113	124.497685544521	3
5	7117	124.499985544521	1
5	7139	124.998566408424	3
5	7146	125.000866408424	1
5	7169	125.499097058929	3
5	7174	125.501397058929	1
5	7196	125.999594386178	3
5	7203	126.001894386178	1
5	7225	126.500401825657	3
5	7229	126.502701825657	1
5	7251	126.999568670526	3
5	7258	127.001868670526	1
5	7280	127.499673055469	3
5	7284	127.501973055469	1
5	7306	127.999842007614	3
5	7313	128.002142007614	1
5	7337	128.500765880381	3
5	7341	128.503065880381	1
5	7366	129.000350175442	3
5	7370	129.002650175442	1
5	7392	129.499831832996	3
5	7396	129.502131832996	1
5	7418	129.999032420885	3
5	7425	130.001332420885	1
5	7447	130.498065280148	3
5	7451	130.500365280148	1
5	7474	130.998924338784	3
5	7482	131.001224338784	1
5	7504	131.499264171868	3
5	7508	131.501564171868	1
5	7530	131.999834477689	3
5	7537	132.002134477689	1
5	7559	132.499397937897	3
5	7563	132.501697937897	1
5	7585	132.999570758237	3
5	7592	133.001870758237	1
5	7614	133.498698668769	3
5	7618	133.500998668769	1
5	7641	133.998669923956	3
5	7649	134.000969923956	1
5	7671	134.499624914227	3
5	7675	134.501924914227	1
5	7700	135.000377924712	3
5	7704	135.002677924712	1
5	7726	135.500054242624	3
5	7730	135.502354242624	1
5	7755	136.000977382939	3
5	7759	136.003277382939	1
5	7781	136.50044078619	3
5	7785	136.50274078619	1
5	7812	137.001339423834	3
5	7816	137.003639423834	1
5	7838	137.502222179244	3
5	7842	137.504522179244	1
5	7867	138.002820584413	3
5	7871	138.005120584413	1
5	7893	138.503081480284	3
5	7897	138.505381480284	1
5	7922	139.003830056224	3
5	7926	139.006130056224	1
5	7950	139.503416096792	3
5	7954	139.505716096792	1
5	7979	140.0041139839	3
5	7983	140.0064139839	1
5	8005	140.504349737284	3
5	8009	140.506649737284	1
5	8034	141.003376210998	3
5	8038	141.005676210998	1
5	8060	141.503070678021	3
5	8064	141.505370678021	1
5	8090	142.002366959741	3
5	8095	142.004666959741	1
5	8117	142.503330618515	3
5	8121	142.505630618515	1
5	8146	143.003287359128	3
5	8150	143.005587359128	1
5	8172	143.503282141863	3
5	8176	143.505582141863	1
5	8201	144.003561086896	3
5	8205	144.005861086896	1
5	8227	144.503298256102	3
5	8231	144.505598256102	1
5	8258	145.00257205665	3
5	8262	145.00487205665	1
5	8284	145.50321629212	3
5	8288	145.50551629212	1
5	8313	146.002595987948	3
5	8317	146.004895987948	1
5	8339	146.502618625913	3
5	8343	146.504918625913	1
5	8368	147.002067259961	3
5	8372	147.004367259961	1
5	8395	147.501262948933	3
5	8400	147.503562948933	1
5	8425	148.001987331961	3
5	8429	148.004287331961	1
5	8451	148.502933170941	3
5	8455	148.505233170941	1
5	8480	149.00385484025	3
5	8484	149.00615484025	1
5	8506	149.504667951246	3
5	8510	149.506967951246	1
6	0	0	1
6	49	0.008494443372	2
6	52	0.008746443372	1
6	68	0.008999654426	2
6	71	0.009331654426	1
6	6876	120.500478258276	2
6	6879	120.500730258276	1
7	0	0	1
7	19	0.003576509125	3
7	22	0.003924509125	1
7	50	0.008495048899	3
7	53	0.008747048899	1
7	69	0.009000259953	3
7	72	0.009332259953	1
7	94	0.012599201405	3
7	97	0.012851201405	1
7	115	0.013184326005	3
7	119	0.015484326005	1
7	149	0.500186251533	3
7	152	0.502486251533	1
7	178	1.000276017888	3
7	181	1.002576017888	1
7	204	1.500123327482	3
7	207	1.502423327482	1
7	233	2.000415115712	3
7	236	2.002715115712	1
7	259	2.500290290132	3
7	262	2.502590290132	1
7	288	3.001073836136	3
7	291	3.003373836136	1
7	316	3.502001161664	3
7	319	3.504301161664	1
7	345	4.001768044707	3
7	348	4.004068044707	1
7	371	4.502351494774	3
7	374	4.504651494774	1
7	400	5.002409284617	3
7	403	5.004709284617	1
7	427	5.502545373745	3
7	430	5.504845373745	1
7	458	6.003396567011	3
7	461	6.005696567011	1
7	484	6.502538639128	3
7	487	6.504838639128	1
7	513	7.001712897722	3
7	516	7.004012897722	1
7	539	7.50075333452	3
7	542	7.50305333452	1
7	568	8.001418574206	3
7	571	8.003718574206	1
7	594	8.50197488772	3
7	598	8.50427488772	1
7	625	9.002714912011	3
7	628	9.005014912011	1
7	651	9.503672148697	3
7	654	9.505972148697	1
7	680	10.004270465825	3
7	683	10.006570465825	1
7	706	10.504193424551	3
7	709	10.506493424551	1
7	735	11.004754482902	3
7	738	11.007054482902	1
7	762	11.50399103175	3
7	766	11.50629103175	1
7	792	12.004270873784	3
7	795	12.006570873784	1
7	818	12.503557580355	3
7	821	12.505857580355	1
7	847	13.004446918192	3
7	850	13.006746918192	1
7	873	13.504490614848	3
7	876	13.506790614848	1
7	902	14.00431993873	3
7	906	14.00661993873	1
7	930	14.503849049953	3
7	933	14.506149049953	1
7	959	15.004397517326	3
7	962	15.006697517326	1
7	985	15.504309817998	3
7	988	15.506609817998	1
7	1014	16.004446685895	3
7	1017	16.006746685895	1
7	1040	16.503484265491	3
7	1043	16.505784265491	1
7	1069	17.003719536493	3
7	1073	17.006019536493	1
7	1097	17.503943727938	3
7	1100	17.506243727938	1
7	1126	18.004177595935	3
7	1129	18.006477595935	1
7	1153	18.505065092086	3
7	1156	18.507365092086	1
7	1182	19.005428732682	3
7	1185	19.007728732682	1
7	1208	19.505147748486	3
7	1211	19.507447748486	1
7	1238	20.005021812391	3
7	1242	20.007321812391	1
7	1266	20.505417074782	3
7	1269	20.507717074782	1
7	1295	21.004537525715	3
7	1298	21.006837525715	1
7	1321	21.504871059138	3
7	1324	21.507171059138	1
7	1350	22.005212334885	3
7	1353	22.007512334885	1
7	1376	22.504633100008	3
7	1380	22.506933100008	1
7	1407	23.003890952605	3
7	1410	23.006190952605	1
7	1433	23.503521809304	3
7	1436	23.505821809304	1
7	1462	24.003249230851	3
7	1465	24.005549230851	1
7	1488	24.503389624403	3
7	1491	24.505689624403	1
7	1517	25.00326682743	3
7	1520	25.00556682743	1
7	1543	25.504243575094	3
7	1547	25.506543575094	1
7	1574	26.003447664708	3
7	1577	26.005747664708	1
7	1600	26.502865418225	3
7	1603	26.505165418225	1
7	1629	27.002188037247	3
7	1632	27.004488037247	1
7	1655	27.502494253891	3
7	1658	27.504794253891	1
7	1684	28.002000837094	3
7	1687	28.004300837094	1
7	1710	28.50193345864	3
7	1713	28.50423345864	1
7	1741	29.001422309816	3
7	1744	29.003722309816	1
7	1767	29.500740248989	3
7	1770	29.503040248989	1
7	1793	29.999960999267	3
7	1799	30.002260999267	1
7	1822	30.500273658451	3
7	1825	30.502573658451	1
7	1848	30.99955002435	3
7	1854	31.00185002435	1
7	1877	31.498943189063	3
7	1880	31.501243189063	1
7	1905	31.998680639394	3
7	1911	32.000980639394	1
7	1934	32.499322625856	3
7	1937	32.501622625856	1
7	1960	32.998516828398	3
7	1966	33.000816828398	1
7	1989	33.499192718211	3
7	1992	33.501492718211	1
7	2015	33.998384915013	3
7	2021	34.000684915013	1
7	2045	34.499337833943	3
7	2049	34.501637833943	1
7	2072	34.99927513634	3
7	2078	35.00157513634	1
7	2101	35.500228658522	3
7	2104	35.502528658522	1
7	2130	36.000438349558	3
7	2133	36.002738349558	1
7	2156	36.500916876721	3
7	2159	36.503216876721	1
7	2183	36.999995252299	3
7	2190	37.002295252299	1
7	2213	37.499560866218	3
7	2216	37.501860866218	1
7	2239	37.998801259347	3
7	2245	38.001101259347	1
7	2268	38.498393539746	3
7	2271	38.500693539746	1
7	2294	38.997630995175	3
7	2297	38.999930995175	1
7	2323	39.497266961522	3
7	2326	39.499566961522	1
7	2351	39.997095487499	3
7	2354	39.999395487499	1
7	2380	40.496223782501	3
7	2383	40.498523782501	1
7	2406	40.99660872674	3
7	2409	40.99890872674	1
7	2435	41.496741929637	3
7	2438	41.499041929637	1
7	2461	41.996272708619	3
7	2464	41.998572708619	1
7	2490	42.496319204725	3
7	2494	42.498619204725	1
7	2518	42.995507085737	3
7	2521	42.997807085737	1
7	2547	43.495658978727	3
7	2550	43.497958978727	1
7	2573	43.996517571123	3
7	2576	43.998817571123	1
7	2602	44.496154709033	3
7	2605	44.498454709033	1
7	2628	44.996489529785	3
7	2631	44.998789529785	1
7	2657	45.495753125509	3
7	2661	45.498053125509	1
7	2685	45.996185779905	3
7	2688	45.998485779905	1
7	2714	46.495764592087	3
7	2717	46.498064592087	1
7	2740	46.995130974814	3
7	2743	46.997430974814	1
7	2769	47.49530400068	3
7	2772	47.49760400068	1
7	2795	47.994344215781	3
7	2798	47.996644215781	1
7	2824	48.495002095838	3
7	2828	48.497302095838	1
7	2852	48.994011486802	3
7	2855	48.996311486802	1
7	2881	49.494367119881	3
7	2884	49.496667119881	1
7	2907	49.993907135818	3
7	2910	49.996207135818	1
7	2936	50.494377523859	3
7	2939	50.496677523859	1
7	2962	50.995301900949	3
7	2965	50.997601900949	1
7	2991	51.494799407228	3
7	2995	51.497099407228	1
7	3019	51.9949517219	3
7	3022	51.9972517219	1
7	3048	52.495135805753	3
7	3051	52.497435805753	1
7	3074	52.995280309556	3
7	3077	52.997580309556	1
7	3103	53.494726472817	3
7	3106	53.497026472817	1
7	3129	53.995631970835	3
7	3132	53.997931970835	1
7	3159	54.495526221592	3
7	3163	54.497826221592	1
7	3186	54.996219038924	3
7	3189	54.998519038924	1
7	3215	55.496617997479	3
7	3218	55.498917997479	1
7	3241	55.996212871382	3
7	3244	55.998512871382	1
7	3270	56.496840467021	3
7	3273	56.499140467021	1
7	3297	56.996633478499	3
7	3301	56.998933478499	1
7	3327	57.497395684901	3
7	3330	57.499695684901	1
7	3353	57.997558230653	3
7	3356	57.999858230653	1
7	3382	58.498321701372	3
7	3385	58.500621701372	1
7	3408	58.998706764555	3
7	3414	59.001006764555	1
7	3439	59.499157273118	3
7	3442	59.501457273118	1
7	3465	59.999159921884	3
7	3471	60.001459921884	1
7	3494	60.500072089164	3
7	3497	60.502372089164	1
7	3523	61.000360069557	3
7	3526	61.002660069557	1
7	3549	61.500207779645	3
7	3552	61.502507779645	1
7	3579	62.000420566079	3
7	3583	62.002720566079	1
7	3606	62.49945895248	3
7	3609	62.50175895248	1
7	3632	62.999062102112	3
7	3638	63.001362102112	1
7	3661	63.499382449189	3
7	3664	63.501682449189	1
7	3687	63.998962604409	3
7	3693	64.001262604409	1
7	3716	64.499198635263	3
7	3720	64.501498635263	1
7	3744	64.99905617266	3
7	3750	65.00135617266	1
7	3773	65.498327120797	3
7	3776	65.500627120797	1
7	3799	65.997923685453	3
7	3805	66.000223685453	1
7	3828	66.498063615276	3
7	3831	66.500363615276	1
7	3854	66.998245360802	3
7	3860	67.000545360802	1
7	3883	67.498394011314	3
7	3887	67.500694011314	1
7	3911	67.998700412945	3
7	3917	68.001000412945	1
7	3940	68.499004619494	3
7	3943	68.501304619494	1
7	3966	68.998867456363	3
7	3972	69.001167456363	1
7	3995	69.49966054956	3
7	3998	69.50196054956	1
7	4021	69.999395673303	3
7	4027	70.001695673303	1
7	4051	70.499267403142	3
7	4055	70.501567403142	1
7	4081	71.000051249858	3
7	4084	71.002351249858	1
7	4107	71.500663637842	3
7	4110	71.502963637842	1
7	4136	72.001071415013	3
7	4139	72.003371415013	1
7	4162	72.500271868786	3
7	4165	72.502571868786	1
7	4192	73.001110834012	3
7	4196	73.003410834012	1
7	4219	73.501539316609	3
7	4222	73.503839316609	1
7	4248	74.002537010615	3
7	4251	74.004837010615	1
7	4274	74.501835907224	3
7	4277	74.504135907224	1
7	4303	75.002572159345	3
7	4306	75.004872159345	1
7	4330	75.501897145208	3
7	4334	75.504197145208	1
7	4360	76.002128264343	3
7	4363	76.004428264343	1
7	4386	76.501375904308	3
7	4389	76.503675904308	1
7	4415	77.002071920763	3
7	4418	77.004371920763	1
7	4441	77.502686558684	3
7	4444	77.504986558684	1
7	4471	78.002824760173	3
7	4475	78.005124760173	1
7	4498	78.502639126768	3
7	4501	78.504939126768	1
7	4527	79.001777460748	3
7	4530	79.004077460748	1
7	4553	79.502172318293	3
7	4556	79.504472318293	1
7	4582	80.002079403653	3
7	4585	80.004379403653	1
7	4608	80.502523514863	3
7	4612	80.504823514863	1
7	4639	81.003256279515	3
7	4642	81.005556279515	1
7	4665	81.504207322539	3
7	4668	81.506507322539	1
7	4694	82.004918929225	3
7	4697	82.007218929225	1
7	4720	82.503942357388	3
7	4723	82.506242357388	1
7	4749	83.003662313506	3
7	4752	83.005962313506	1
7	4776	83.504122294629	3
7	4780	83.506422294629	1
7	4806	84.003465553984	3
7	4809	84.005765553984	1
7	4832	84.50350762719	3
7	4835	84.50580762719	1
7	4861	85.002616303162	3
7	4864	85.004916303162	1
7	4887	85.502016296213	3
7	4890	85.504316296213	1
7	4916	86.001053339801	3
7	4919	86.003353339801	1
7	4944	86.501640735206	3
7	4947	86.503940735206	1
7	4973	87.001088584571	3
7	4976	87.003388584571	1
7	4999	87.500779287928	3
7	5002	87.503079287928	1
7	5028	88.001635450513	3
7	5031	88.003935450513	1
7	5054	88.502044279312	3
7	5057	88.504344279312	1
7	5084	89.00110795716	3
7	5088	89.00340795716	1
7	5111	89.500437345473	3
7	5114	89.502737345473	1
7	5140	90.000680302286	3
7	5143	90.002980302286	1
7	5166	90.500834759457	3
7	5169	90.503134759457	1
7	5195	91.000310545087	3
7	5198	91.002610545087	1
7	5221	91.501178973091	3
7	5225	91.503478973091	1
7	5252	92.001406904996	3
7	5255	92.003706904996	1
7	5278	92.501478170591	3
7	5281	92.503778170591	1
7	5307	93.001657990546	3
7	5310	93.003957990546	1
7	5333	93.502118234599	3
7	5336	93.504418234599	1
7	5362	94.00174212459	3
7	5365	94.00404212459	1
7	5389	94.501538566725	3
7	5393	94.503838566725	1
7	5419	95.000958254233	3
7	5422	95.003258254233	1
7	5445	95.500330640244	3
7	5448	95.502630640244	1
7	5474	96.001219385021	3
7	5477	96.003519385021	1
7	5500	96.501698486614	3
7	5503	96.503998486614	1
7	5529	97.001679404218	3
7	5533	97.003979404218	1
7	5557	97.501134233476	3
7	5560	97.503434233476	1
7	5586	98.000642946442	3
7	5589	98.002942946442	1
7	5612	98.499759004767	3
7	5615	98.502059004767	1
7	5638	98.999627838025	3
7	5644	99.001927838025	1
7	5667	99.499251429779	3
7	5670	99.501551429779	1
7	5693	99.99964411675	3
7	5700	100.00194411675	1
7	5724	100.499399620425	3
7	5727	100.501699620425	1
7	5750	100.99875882778	3
7	5756	101.00105882778	1
7	5779	101.497808185238	3
7	5782	101.500108185238	1
7	5805	101.9969426845	3
7	5808	101.9992426845	1
7	5834	102.497301470052	3
7	5837	102.499601470052	1
7	5860	102.997208863731	3
7	5863	102.999508863731	1
7	5891	103.497282022148	3
7	5894	103.499582022148	1
7	5917	103.998075364729	3
7	5923	104.000375364729	1
7	5946	104.499056042621	3
7	5949	104.501356042621	1
7	5972	104.998489836583	3
7	5978	105.000789836583	1
7	6001	105.49881599299	3
7	6004	105.50111599299	1
7	6028	105.998342637746	3
7	6035	106.000642637746	1
7	6058	106.497383939755	3
7	6061	106.499683939755	1
7	6084	106.997900697059	3
7	6090	107.000200697059	1
7	6113	107.497540731349	3
7	6116	107.499840731349	1
7	6139	107.997307659131	3
7	6142	107.999607659131	1
7	6168	108.497484293366	3
7	6172	108.499784293366	1
7	6196	108.998146390281	3
7	6202	109.000446390281	1
7	6225	109.498404353979	3
7	6228	109.500704353979	1
7	6251	109.999149655294	3
7	6257	110.001449655294	1
7	6280	110.498696739361	3
7	6283	110.500996739361	1
7	6306	110.999292833022	3
7	6312	111.001592833022	1
7	6336	111.498664104908	3
7	6340	111.500964104908	1
7	6363	111.999569688224	3
7	6369	112.001869688224	1
7	6392	112.49994466477	3
7	6395	112.50224466477	1
7	6418	112.999375680126	3
7	6424	113.001675680126	1
7	6447	113.500270421315	3
7	6450	113.502570421315	1
7	6477	114.00073213292	3
7	6481	114.00303213292	1
7	6504	114.500240016211	3
7	6507	114.502540016211	1
7	6530	114.999666640161	3
7	6536	115.001966640161	1
7	6559	115.499703041584	3
7	6562	115.502003041584	1
7	6585	115.998754367011	3
7	6591	116.001054367011	1
7	6614	116.498169307168	3
7	6618	116.500469307168	1
7	6642	116.998018678098	3
7	6648	117.000318678098	1
7	6671	117.497767018055	3
7	6674	117.500067018055	1
7	6697	117.997694168901	3
7	6700	117.999994168901	1
7	6726	118.497249426318	3
7	6729	118.499549426318	1
7	6752	118.997422995009	3
7	6755	118.999722995009	1
7	6781	119.498150706212	3
7	6785	119.500450706212	1
7	6809	119.997385769927	3
7	6812	119.999685769927	1
7	6838	120.497420528149	3
7	6841	120.497672528149	1
7	6857	120.497925652749	3
7	6860	120.500225652749	1
7	6877	120.500478863803	3
7	6880	120.500730863803	1
7	6907	120.996684664368	3
7	6910	120.998984664368	1
7	6936	121.497118383728	3
7	6939	121.499418383728	1
7	6962	121.996910503136	3
7	6965	121.999210503136	1
7	6991	122.497041345751	3
7	6995	122.499341345751	1
7	7019	122.99640790543	3
7	7022	122.99870790543	1
7	7048	123.495697600955	3
7	7051	123.497997600955	1
7	7074	123.995673713524	3
7	7077	123.997973713524	1
7	7103	124.495384938994	3
7	7106	124.497684938994	1
7	7129	124.996265802897	3
7	7132	124.998565802897	1
7	7158	125.496796453402	3
7	7162	125.499096453402	1
7	7186	125.997293780651	3
7	7189	125.999593780651	1
7	7215	126.49810122013	3
7	7218	126.50040122013	1
7	7241	126.997268064999	3
7	7244	126.999568064999	1
7	7270	127.497372449942	3
7	7273	127.499672449942	1
7	7296	127.997541402087	3
7	7299	127.999841402087	1
7	7326	128.498465274854	3
7	7330	128.500765274854	1
7	7353	128.998049569915	3
7	7359	129.000349569915	1
7	7382	129.497531227469	3
7	7385	129.499831227469	1
7	7408	129.996731815358	3
7	7411	129.999031815358	1
7	7437	130.495764674621	3
7	7440	130.498064674621	1
7	7463	130.996623733257	3
7	7467	130.998923733257	1
7	7494	131.496963566341	3
7	7497	131.499263566341	1
7	7520	131.997533872162	3
7	7523	131.999833872162	1
7	7549	132.49709733237	3
7	7552	132.49939733237	1
7	7575	132.99727015271	3
7	7578	132.99957015271	1
7	7604	133.496398063242	3
7	7607	133.498698063242	1
7	7630	133.996369318429	3
7	7634	133.998669318429	1
7	7661	134.4973243087	3
7	7664	134.4996243087	1
7	7687	134.998077319185	3
7	7693	135.000377319185	1
7	7716	135.497753637097	3
7	7719	135.500053637097	1
7	7742	135.998676777412	3
7	7748	136.000976777412	1
7	7771	136.498140180663	3
7	7774	136.500440180663	1
7	7799	136.999038818307	3
7	7805	137.001338818307	1
7	7828	137.499921573717	3
7	7831	137.502221573717	1
7	7857	138.000519978886	3
7	7860	138.002819978886	1
7	7883	138.500780874757	3
7	7886	138.503080874757	1
7	7912	139.001529450697	3
7	7915	139.003829450697	1
7	7940	139.501115491265	3
7	7943	139.503415491265	1
7	7969	140.001813378373	3
7	7972	140.004113378373	1
7	7995	140.502049131757	3
7	7998	140.504349131757	1
7	8024	141.001075605471	3
7	8027	141.003375605471	1
7	8050	141.500770072494	3
7	8053	141.503070072494	1
7	8079	142.000066354214	3
7	8083	142.002366354214	1
7	8107	142.501030012988	3
7	8110	142.503330012988	1
7	8136	143.000986753601	3
7	8139	143.003286753601	1
7	8162	143.500981536336	3
7	8165	143.503281536336	1
7	8191	144.001260481369	3
7	8194	144.003560481369	1
7	8217	144.500997650575	3
7	8220	144.503297650575	1
7	8247	145.000271451123	3
7	8251	145.002571451123	1
7	8274	145.500915686593	3
7	8277	145.503215686593	1
7	8303	146.000295382421	3
7	8306	146.002595382421	1
7	8329	146.500318020386	3
7	8332	146.502618020386	1
7	8355	146.999766654434	3
7	8361	147.002066654434	1
7	8384	147.498962343406	3
7	8388	147.501262343406	1
7	8412	147.999686726434	3
7	8418	148.001986726434	1
7	8441	148.500632565414	3
7	8444	148.502932565414	1
7	8470	149.001554234723	3
7	8473	149.003854234723	1
7	8496	149.502367345719	3
7	8499	149.504667345719	1
8	0	0	1
8	32	0.008145837845	2
8	35	0.008493837845	1
8	57	0.008747048899	2
8	61	0.008999048899	1
8	82	0.012346076805	2
8	85	0.012598076805	1
8	101	0.012851201405	2
8	105	0.013183201405	1
8	123	0.015484326005	2
8	127	0.017784326005	1
8	156	0.502486251533	2
8	160	0.504786251533	1
8	185	1.002576017888	2
8	189	1.004876017888	1
8	211	1.502423327482	2
8	215	1.504723327482	1
8	240	2.002715115712	2
8	244	2.005015115712	1
8	266	2.502590290132	2
8	270	2.504890290132	1
8	295	3.003373836136	2
8	299	3.005673836136	1
8	323	3.504301161664	2
8	327	3.506601161664	1
8	352	4.004068044707	2
8	356	4.006368044707	1
8	378	4.504651494774	2
8	382	4.506951494774	1
8	407	5.004709284617	2
8	411	5.007009284617	1
8	434	5.504845373745	2
8	438	5.507145373745	1
8	465	6.005696567011	2
8	469	6.007996567011	1
8	491	6.504838639128	2
8	495	6.507138639128	1
8	520	7.004012897722	2
8	524	7.006312897722	1
8	546	7.50305333452	2
8	550	7.50535333452	1
8	575	8.003718574206	2
8	579	8.006018574206	1
8	602	8.50427488772	2
8	607	8.50657488772	1
8	632	9.005014912011	2
8	636	9.007314912011	1
8	658	9.505972148697	2
8	662	9.508272148697	1
8	687	10.006570465825	2
8	691	10.008870465825	1
8	713	10.506493424551	2
8	717	10.508793424551	1
8	742	11.007054482902	2
8	746	11.009354482902	1
8	770	11.50629103175	2
8	774	11.50859103175	1
8	799	12.006570873784	2
8	803	12.008870873784	1
8	825	12.505857580355	2
8	829	12.508157580355	1
8	854	13.006746918192	2
8	858	13.009046918192	1
8	880	13.506790614848	2
8	884	13.509090614848	1
8	910	14.00661993873	2
8	915	14.00891993873	1
8	937	14.506149049953	2
8	941	14.508449049953	1
8	966	15.006697517326	2
8	970	15.008997517326	1
8	992	15.506609817998	2
8	996	15.508909817998	1
8	1021	16.006746685895	2
8	1025	16.009046685895	1
8	1047	16.505784265491	2
8	1051	16.508084265491	1
8	1077	17.006019536493	2
8	1082	17.008319536493	1
8	1104	17.506243727938	2
8	1108	17.508543727938	1
8	1133	18.006477595935	2
8	1138	18.008777595935	1
8	1160	18.507365092086	2
8	1164	18.509665092086	1
8	1189	19.007728732682	2
8	1193	19.010028732682	1
8	1215	19.507447748486	2
8	1219	19.509747748486	1
8	1246	20.007321812391	2
8	1250	20.009621812391	1
8	1273	20.507717074782	2
8	1277	20.510017074782	1
8	1302	21.006837525715	2
8	1306	21.009137525715	1
8	1328	21.507171059138	2
8	1332	21.509471059138	1
8	1357	22.007512334885	2
8	1361	22.009812334885	1
8	1384	22.506933100008	2
8	1389	22.509233100008	1
8	1414	23.006190952605	2
8	1418	23.008490952605	1
8	1440	23.505821809304	2
8	1444	23.508121809304	1
8	1469	24.005549230851	2
8	1473	24.007849230851	1
8	1495	24.505689624403	2
8	1499	24.507989624403	1
8	1524	25.00556682743	2
8	1528	25.00786682743	1
8	1551	25.506543575094	2
8	1556	25.508843575094	1
8	1581	26.005747664708	2
8	1585	26.008047664708	1
8	1607	26.505165418225	2
8	1611	26.507465418225	1
8	1636	27.004488037247	2
8	1640	27.006788037247	1
8	1662	27.504794253891	2
8	1666	27.507094253891	1
8	1691	28.004300837094	2
8	1695	28.006600837094	1
8	1717	28.50423345864	2
8	1722	28.50653345864	1
8	1748	29.003722309816	2
8	1752	29.006022309816	1
8	1774	29.503040248989	2
8	1778	29.505340248989	1
8	1803	30.002260999267	2
8	1807	30.004560999267	1
8	1829	30.502573658451	2
8	1833	30.504873658451	1
8	1858	31.00185002435	2
8	1862	31.00415002435	1
8	1884	31.501243189063	2
8	1889	31.503543189063	1
8	1915	32.000980639394	2
8	1919	32.003280639394	1
8	1941	32.501622625856	2
8	1945	32.503922625856	1
8	1970	33.000816828398	2
8	1974	33.003116828398	1
8	1996	33.501492718211	2
8	2000	33.503792718211	1
8	2025	34.000684915013	2
8	2029	34.002984915013	1
8	2053	34.501637833943	2
8	2057	34.503937833943	1
8	2082	35.00157513634	2
8	2086	35.00387513634	1
8	2108	35.502528658522	2
8	2112	35.504828658522	1
8	2137	36.002738349558	2
8	2141	36.005038349558	1
8	2163	36.503216876721	2
8	2167	36.505516876721	1
8	2194	37.002295252299	2
8	2198	37.004595252299	1
8	2220	37.501860866218	2
8	2224	37.504160866218	1
8	2249	38.001101259347	2
8	2253	38.003401259347	1
8	2275	38.500693539746	2
8	2279	38.502993539746	1
8	2301	38.999930995175	2
8	2308	39.002230995175	1
8	2330	39.499566961522	2
8	2335	39.501866961522	1
8	2358	39.999395487499	2
8	2365	40.001695487499	1
8	2387	40.498523782501	2
8	2391	40.500823782501	1
8	2413	40.99890872674	2
8	2420	41.00120872674	1
8	2442	41.499041929637	2
8	2446	41.501341929637	1
8	2468	41.998572708619	2
8	2475	42.000872708619	1
8	2498	42.498619204725	2
8	2503	42.500919204725	1
8	2525	42.997807085737	2
8	2532	43.000107085737	1
8	2554	43.497958978727	2
8	2558	43.500258978727	1
8	2580	43.998817571123	2
8	2587	44.001117571123	1
8	2609	44.498454709033	2
8	2613	44.500754709033	1
8	2635	44.998789529785	2
8	2642	45.001089529785	1
8	2665	45.498053125509	2
8	2670	45.500353125509	1
8	2692	45.998485779905	2
8	2699	46.000785779905	1
8	2721	46.498064592087	2
8	2725	46.500364592087	1
8	2747	46.997430974814	2
8	2751	46.999730974814	1
8	2776	47.49760400068	2
8	2780	47.49990400068	1
8	2802	47.996644215781	2
8	2806	47.998944215781	1
8	2832	48.497302095838	2
8	2837	48.499602095838	1
8	2859	48.996311486802	2
8	2863	48.998611486802	1
8	2888	49.496667119881	2
8	2892	49.498967119881	1
8	2914	49.996207135818	2
8	2918	49.998507135818	1
8	2943	50.496677523859	2
8	2947	50.498977523859	1
8	2969	50.997601900949	2
8	2973	50.999901900949	1
8	2999	51.497099407228	2
8	3004	51.499399407228	1
8	3026	51.9972517219	2
8	3030	51.9995517219	1
8	3055	52.497435805753	2
8	3059	52.499735805753	1
8	3081	52.997580309556	2
8	3085	52.999880309556	1
8	3110	53.497026472817	2
8	3114	53.499326472817	1
8	3136	53.997931970835	2
8	3143	54.000231970835	1
8	3167	54.497826221592	2
8	3171	54.500126221592	1
8	3193	54.998519038924	2
8	3200	55.000819038924	1
8	3222	55.498917997479	2
8	3226	55.501217997479	1
8	3248	55.998512871382	2
8	3255	56.000812871382	1
8	3277	56.499140467021	2
8	3281	56.501440467021	1
8	3305	56.998933478499	2
8	3312	57.001233478499	1
8	3334	57.499695684901	2
8	3338	57.501995684901	1
8	3360	57.999858230653	2
8	3367	58.002158230653	1
8	3389	58.500621701372	2
8	3393	58.502921701372	1
8	3418	59.001006764555	2
8	3422	59.003306764555	1
8	3446	59.501457273118	2
8	3450	59.503757273118	1
8	3475	60.001459921884	2
8	3479	60.003759921884	1
8	3501	60.502372089164	2
8	3505	60.504672089164	1
8	3530	61.002660069557	2
8	3534	61.004960069557	1
8	3556	61.502507779645	2
8	3560	61.504807779645	1
8	3587	62.002720566079	2
8	3591	62.005020566079	1
8	3613	62.50175895248	2
8	3617	62.50405895248	1
8	3642	63.001362102112	2
8	3646	63.003662102112	1
8	3668	63.501682449189	2
[...]
55	8520	18.4	0
55	8520	18.5	0
55	8520	18.6	0
55	8520	18.7	0
55	8520	18.8	0
55	8520	18.9	0
55	8520	19	0
55	8520	19.1	0
55	8520	19.2	0
55	8520	19.3	0
55	8520	19.4	0
55	8520	19.5	0
55	8520	19.6	0
55	8520	19.7	0
55	8520	19.8	0
55	8520	19.9	0
55	8520	20	0
55	8520	20.1	0
55	8520	20.2	0
55	8520	20.3	0
55	8520	20.4	0
55	8520	20.5	0
55	8520	20.6	0
55	8520	20.7	0
55	8520	20.8	0
55	8520	20.9	0
55	8520	21	0
55	8520	21.1	0
55	8520	21.2	0
55	8520	21.3	0
55	8520	21.4	0
55	8520	21.5	0
55	8520	21.6	0
55	8520	21.7	0
55	8520	21.8	0
55	8520	21.9	0
55	8520	22	0
55	8520	22.1	0
55	8520	22.2	0
55	8520	22.3	0
55	8520	22.4	0
55	8520	22.5	0
55	8520	22.6	0
55	8520	22.7	0
55	8520	22.8	0
55	8520	22.9	0
55	8520	23	0
55	8520	23.1	0
55	8520	23.2	0
55	8520	23.3	0
55	8520	23.4	0
55	8520	23.5	0
55	8520	23.6	0
55	8520	23.7	0
55	8520	23.8	0
55	8520	23.9	0
55	8520	24	0
55	8520	24.1	0
55	8520	24.2	0
55	8520	24.3	0
55	8520	24.4	0
55	8520	24.5	0
55	8520	24.6	0
55	8520	24.7	0
55	8520	24.8	0
55	8520	24.9	0
55	8520	25	0
55	8520	25.1	0
55	8520	25.2	0
55	8520	25.3	0
55	8520	25.4	0
55	8520	25.5	0
55	8520	25.6	0
55	8520	25.7	0
55	8520	25.8	0
55	8520	25.9	0
55	8520	26	0
55	8520	26.1	0
55	8520	26.2	0
55	8520	26.3	0
55	8520	26.4	0
55	8520	26.5	0
55	8520	26.6	0
55	8520	26.7	0
55	8520	26.8	0
55	8520	26.9	0
55	8520	27	0
55	8520	27.1	0
55	8520	27.2	0
55	8520	27.3	0
55	8520	27.4	0
55	8520	27.5	0
55	8520	27.6	0
55	8520	27.7	0
55	8520	27.8	0
55	8520	27.9	0
55	8520	28	0
55	8520	28.1	0
55	8520	28.2	0
55	8520	28.3	0
55	8520	28.4	0
55	8520	28.5	0
55	8520	28.6	0
55	8520	28.7	0
55	8520	28.8	0
55	8520	28.9	0
55	8520	29	0
55	8520	29.1	0
55	8520	29.2	0
55	8520	29.3	0
55	8520	29.4	0
55	8520	29.5	0
55	8520	29.6	0
55	8520	29.7	0
55	8520	29.8	0
55	8520	29.9	0
55	8520	30	0
55	8520	30.1	0
55	8520	30.2	0
55	8520	30.3	0
55	8520	30.4	0
55	8520	30.5	0
55	8520	30.6	0
55	8520	30.7	0
55	8520	30.8	0
55	8520	30.9	0
55	8520	31	0
55	8520	31.1	0
55	8520	31.2	0
55	8520	31.3	0
55	8520	31.4	0
55	8520	31.5	0
55	8520	31.6	0
55	8520	31.7	0
55	8520	31.8	0
55	8520	31.9	0
55	8520	32	0
55	8520	32.1	0
55	8520	32.2	0
55	8520	32.3	0
55	8520	32.4	0
55	8520	32.5	0
55	8520	32.6	0
55	8520	32.7	0
55	8520	32.8	0
55	8520	32.9	0
55	8520	33	0
55	8520	33.1	0
55	8520	33.2	0
55	8520	33.3	0
55	8520	33.4	0
55	8520	33.5	0
55	8520	33.6	0
55	8520	33.7	0
55	8520	33.8	0
55	8520	33.9	0
55	8520	34	0
55	8520	34.1	0
55	8520	34.2	0
55	8520	34.3	0
55	8520	34.4	0
55	8520	34.5	0
55	8520	34.6	0
55	8520	34.7	0
55	8520	34.8	0
55	8520	34.9	0
55	8520	35	0
55	8520	35.1	0
55	8520	35.2	0
55	8520	35.3	0
55	8520	35.4	0
55	8520	35.5	0
55	8520	35.6	0
55	8520	35.7	0
55	8520	35.8	0
55	8520	35.9	0
55	8520	36	0
55	8520	36.1	0
55	8520	36.2	0
55	8520	36.3	0
55	8520	36.4	0
55	8520	36.5	0
55	8520	36.6	0
55	8520	36.7	0
55	8520	36.8	0
55	8520	36.9	0
55	8520	37	0
55	8520	37.1	0
55	8520	37.2	0
55	8520	37.3	0
55	8520	37.4	0
55	8520	37.5	0
55	8520	37.6	0
55	8520	37.7	0
55	8520	37.8	0
55	8520	37.9	0
55	8520	38	0
55	8520	38.1	0
55	8520	38.2	0
55	8520	38.3	0
55	8520	38.4	0
55	8520	38.5	0
55	8520	38.6	0
55	8520	38.7	0
55	8520	38.8	0
55	8520	38.9	0
55	8520	39	0
55	8520	39.1	0
55	8520	39.2	0
55	8520	39.3	0
55	8520	39.4	0
55	8520	39.5	0
55	8520	39.6	0
55	8520	39.7	0
55	8520	39.8	0
55	8520	39.9	0
55	8520	40	0
55	8520	40.1	0
55	8520	40.2	0
55	8520	40.3	0
55	8520	40.4	0
55	8520	40.5	0
55	8520	40.6	0
55	8520	40.7	0
55	8520	40.8	0
55	8520	40.9	0
55	8520	41	0
55	8520	41.1	0
55	8520	41.2	0
55	8520	41.3	0
55	8520	41.4	0
55	8520	41.5	0
55	8520	41.6	0
55	8520	41.7	0
55	8520	41.8	0
55	8520	41.9	0
55	8520	42	0
55	8520	42.1	0
55	8520	42.2	0
55	8520	42.3	0
55	8520	42.4	0
55	8520	42.5	0
55	8520	42.6	0
55	8520	42.7	0
55	8520	42.8	0
55	8520	42.9	0
55	8520	43	0
55	8520	43.1	0
55	8520	43.2	0
55	8520	43.3	0
55	8520	43.4	0
55	8520	43.5	0
55	8520	43.6	0
55	8520	43.7	0
55	8520	43.8	0
55	8520	43.9	0
55	8520	44	0
55	8520	44.1	0
55	8520	44.2	0
55	8520	44.3	0
55	8520	44.4	0
55	8520	44.5	0
55	8520	44.6	0
55	8520	44.7	0
55	8520	44.8	0
55	8520	44.9	0
55	8520	45	0
55	8520	45.1	0
55	8520	45.2	0
55	8520	45.3	0
55	8520	45.4	0
55	8520	45.5	0
55	8520	45.6	0
55	8520	45.7	0
55	8520	45.8	0
55	8520	45.9	0
55	8520	46	0
55	8520	46.1	0
55	8520	46.2	0
55	8520	46.3	0
55	8520	46.4	0
55	8520	46.5	0
55	8520	46.6	0
55	8520	46.7	0
55	8520	46.8	0
55	8520	46.9	0
55	8520	47	0
55	8520	47.1	0
55	8520	47.2	0
55	8520	47.3	0
55	8520	47.4	0
55	8520	47.5	0
55	8520	47.6	0
55	8520	47.7	0
55	8520	47.8	0
55	8520	47.9	0
55	8520	48	0
55	8520	48.1	0
55	8520	48.2	0
55	8520	48.3	0
55	8520	48.4	0
55	8520	48.5	0
55	8520	48.6	0
55	8520	48.7	0
55	8520	48.8	0
55	8520	48.9	0
55	8520	49	0
55	8520	49.1	0
55	8520	49.2	0
55	8520	49.3	0
55	8520	49.4	0
55	8520	49.5	0
55	8520	49.6	0
55	8520	49.7	0
55	8520	49.8	0
55	8520	49.9	0
55	8520	50	0
55	8520	50.1	0
55	8520	50.2	0
55	8520	50.3	0
55	8520	50.4	0
55	8520	50.5	0
55	8520	50.6	0
55	8520	50.7	0
55	8520	50.8	0
55	8520	50.9	0
55	8520	51	0
55	8520	51.1	0
55	8520	51.2	0
55	8520	51.3	0
55	8520	51.4	0
55	8520	51.5	0
55	8520	51.6	0
55	8520	51.7	0
55	8520	51.8	0
55	8520	51.9	0
55	8520	52	0
55	8520	52.1	0
55	8520	52.2	0
55	8520	52.3	0
55	8520	52.4	0
55	8520	52.5	0
55	8520	52.6	0
55	8520	52.7	0
55	8520	52.8	0
55	8520	52.9	0
55	8520	53	0
55	8520	53.1	0
55	8520	53.2	0
55	8520	53.3	0
55	8520	53.4	0
55	8520	53.5	0
55	8520	53.6	0
55	8520	53.7	0
55	8520	53.8	0
55	8520	53.9	0
55	8520	54	0
55	8520	54.1	0
55	8520	54.2	0
55	8520	54.3	0
55	8520	54.4	0
55	8520	54.5	0
55	8520	54.6	0
55	8520	54.7	0
55	8520	54.8	0
55	8520	54.9	0
55	8520	55	0
55	8520	55.1	0
55	8520	55.2	0
55	8520	55.3	0
55	8520	55.4	0
55	8520	55.5	0
55	8520	55.6	0
55	8520	55.7	0
55	8520	55.8	0
55	8520	55.9	0
55	8520	56	0
55	8520	56.1	0
55	8520	56.2	0
55	8520	56.3	0
55	8520	56.4	0
55	8520	56.5	0
55	8520	56.6	0
55	8520	56.7	0
55	8520	56.8	0
55	8520	56.9	0
55	8520	57	0
55	8520	57.1	0
55	8520	57.2	0
55	8520	57.3	0
55	8520	57.4	0
55	8520	57.5	0
55	8520	57.6	0
55	8520	57.7	0
55	8520	57.8	0
55	8520	57.9	0
55	8520	58	0
55	8520	58.1	0
55	8520	58.2	0
55	8520	58.3	0
55	8520	58.4	0
55	8520	58.5	0
55	8520	58.6	0
55	8520	58.7	0
55	8520	58.8	0
55	8520	58.9	0
55	8520	59	0
55	8520	59.1	0
55	8520	59.2	0
55	8520	59.3	0
55	8520	59.4	0
55	8520	59.5	0
55	8520	59.6	0
55	8520	59.7	0
55	8520	59.8	0
55	8520	59.9	0
55	8520	60	0
55	8520	60.1	0
55	8520	60.2	0
55	8520	60.3	0
55	8520	60.4	0
55	8520	60.5	0
55	8520	60.6	0
55	8520	60.7	0
55	8520	60.8	0
55	8520	60.9	0
55	8520	61	0
55	8520	61.1	0
55	8520	61.2	0
55	8520	61.3	0
55	8520	61.4	0
55	8520	61.5	0
55	8520	61.6	0
55	8520	61.7	0
55	8520	61.8	0
55	8520	61.9	0
55	8520	62	0
55	8520	62.1	0
55	8520	62.2	0
55	8520	62.3	0
55	8520	62.4	0
55	8520	62.5	0
55	8520	62.6	0
55	8520	62.7	0
55	8520	62.8	0
55	8520	62.9	0
55	8520	63	0
55	8520	63.1	0
55	8520	63.2	0
55	8520	63.3	0
55	8520	63.4	0
55	8520	63.5	0
55	8520	63.6	0
55	8520	63.7	0
55	8520	63.8	0
55	8520	63.9	0
55	8520	64	0
55	8520	64.1	0
55	8520	64.2	0
55	8520	64.3	0
55	8520	64.4	0
55	8520	64.5	0
55	8520	64.6	0
55	8520	64.7	0
55	8520	64.8	0
55	8520	64.9	0
55	8520	65	0
55	8520	65.1	0
55	8520	65.2	0
55	8520	65.3	0
55	8520	65.4	0
55	8520	65.5	0
55	8520	65.6	0
55	8520	65.7	0
55	8520	65.8	0
55	8520	65.9	0
55	8520	66	0
55	8520	66.1	0
55	8520	66.2	0
55	8520	66.3	0
55	8520	66.4	0
55	8520	66.5	0
55	8520	66.6	0
55	8520	66.7	0
55	8520	66.8	0
55	8520	66.9	0
55	8520	67	0
55	8520	67.1	0
55	8520	67.2	0
55	8520	67.3	0
55	8520	67.4	0
55	8520	67.5	0
55	8520	67.6	0
55	8520	67.7	0
55	8520	67.8	0
55	8520	67.9	0
55	8520	68	0
55	8520	68.1	0
55	8520	68.2	0
55	8520	68.3	0
55	8520	68.4	0
55	8520	68.5	0
55	8520	68.6	0
55	8520	68.7	0
55	8520	68.8	0
55	8520	68.9	0
55	8520	69	0
55	8520	69.1	0
55	8520	69.2	0
55	8520	69.3	0
55	8520	69.4	0
55	8520	69.5	0
55	8520	69.6	0
55	8520	69.7	0
55	8520	69.8	0
55	8520	69.9	0
55	8520	70	0
55	8520	70.1	0
55	8520	70.2	0
55	8520	70.3	0
55	8520	70.4	0
55	8520	70.5	0
55	8520	70.6	0
55	8520	70.7	0
55	8520	70.8	0
55	8520	70.9	0
55	8520	71	0
55	8520	71.1	0
55	8520	71.2	0
55	8520	71.3	0
55	8520	71.4	0
55	8520	71.5	0
55	8520	71.6	0
55	8520	71.7	0
55	8520	71.8	0
55	8520	71.9	0
55	8520	72	0
55	8520	72.1	0
55	8520	72.2	0
55	8520	72.3	0
55	8520	72.4	0
55	8520	72.5	0
55	8520	72.6	0
55	8520	72.7	0
55	8520	72.8	0
55	8520	72.9	0
55	8520	73	0
55	8520	73.1	0
55	8520	73.2	0
55	8520	73.3	0
55	8520	73.4	0
55	8520	73.5	0
55	8520	73.6	0
55	8520	73.7	0
55	8520	73.8	0
55	8520	73.9	0
55	8520	74	0
55	8520	74.1	0
55	8520	74.2	0
55	8520	74.3	0
55	8520	74.4	0
55	8520	74.5	0
55	8520	74.6	0
55	8520	74.7	0
55	8520	74.8	0
55	8520	74.9	0
55	8520	75	0
55	8520	75.1	0
55	8520	75.2	0
55	8520	75.3	0
55	8520	75.4	0
55	8520	75.5	0
55	8520	75.6	0
55	8520	75.7	0
55	8520	75.8	0
55	8520	75.9	0
55	8520	76	0
55	8520	76.1	0
55	8520	76.2	0
55	8520	76.3	0
55	8520	76.4	0
55	8520	76.5	0
55	8520	76.6	0
55	8520	76.7	0
55	8520	76.8	0
55	8520	76.9	0
55	8520	77	0
55	8520	77.1	0
55	8520	77.2	0
55	8520	77.3	0
55	8520	77.4	0
55	8520	77.5	0
55	8520	77.6	0
55	8520	77.7	0
55	8520	77.8	0
55	8520	77.9	0
55	8520	78	0
55	8520	78.1	0
55	8520	78.2	0
55	8520	78.3	0
55	8520	78.4	0
55	8520	78.5	0
55	8520	78.6	0
55	8520	78.7	0
55	8520	78.8	0
55	8520	78.9	0
55	8520	79	0
55	8520	79.1	0
55	8520	79.2	0
55	8520	79.3	0
55	8520	79.4	0
55	8520	79.5	0
55	8520	79.6	0
55	8520	79.7	0
55	8520	79.8	0
55	8520	79.9	0
55	8520	80	0
55	8520	80.1	0
55	8520	80.2	0
55	8520	80.3	0
55	8520	80.4	0
55	8520	80.5	0
55	8520	80.6	0
55	8520	80.7	0
55	8520	80.8	0
55	8520	80.9	0
55	8520	81	0
55	8520	81.1	0
55	8520	81.2	0
55	8520	81.3	0
55	8520	81.4	0
55	8520	81.5	0
55	8520	81.6	0
55	8520	81.7	0
55	8520	81.8	0
55	8520	81.9	0
55	8520	82	0
55	8520	82.1	0
55	8520	82.2	0
55	8520	82.3	0
55	8520	82.4	0
55	8520	82.5	0
55	8520	82.6	0
55	8520	82.7	0
55	8520	82.8	0
55	8520	82.9	0
55	8520	83	0
55	8520	83.1	0
55	8520	83.2	0
55	8520	83.3	0
55	8520	83.4	0
55	8520	83.5	0
55	8520	83.6	0
55	8520	83.7	0
55	8520	83.8	0
55	8520	83.9	0
55	8520	84	0
55	8520	84.1	0
55	8520	84.2	0
55	8520	84.3	0
55	8520	84.4	0
55	8520	84.5	0
55	8520	84.6	0
55	8520	84.7	0
55	8520	84.8	0
55	8520	84.9	0
55	8520	85	0
55	8520	85.1	0
55	8520	85.2	0
55	8520	85.3	0
55	8520	85.4	0
55	8520	85.5	0
55	8520	85.6	0
55	8520	85.7	0
55	8520	85.8	0
55	8520	85.9	0
55	8520	86	0
55	8520	86.1	0
55	8520	86.2	0
55	8520	86.3	0
55	8520	86.4	0
55	8520	86.5	0
55	8520	86.6	0
55	8520	86.7	0
55	8520	86.8	0
55	8520	86.9	0
55	8520	87	0
55	8520	87.1	0
55	8520	87.2	0
55	8520	87.3	0
55	8520	87.4	0
55	8520	87.5	0
55	8520	87.6	0
55	8520	87.7	0
55	8520	87.8	0
55	8520	87.9	0
55	8520	88	0
55	8520	88.1	0
55	8520	88.2	0
55	8520	88.3	0
55	8520	88.4	0
55	8520	88.5	0
55	8520	88.6	0
55	8520	88.7	0
55	8520	88.8	0
55	8520	88.9	0
55	8520	89	0
55	8520	89.1	0
55	8520	89.2	0
55	8520	89.3	0
55	8520	89.4	0
55	8520	89.5	0
55	8520	89.6	0
55	8520	89.7	0
55	8520	89.8	0
55	8520	89.9	0
55	8520	90	0
55	8520	90.1	0
55	8520	90.2	0
55	8520	90.3	0
55	8520	90.4	0
55	8520	90.5	0
55	8520	90.6	0
55	8520	90.7	0
55	8520	90.8	0
55	8520	90.9	0
55	8520	91	0
55	8520	91.1	0
55	8520	91.2	0
55	8520	91.3	0
55	8520	91.4	0
55	8520	91.5	0
55	8520	91.6	0
55	8520	91.7	0
55	8520	91.8	0
55	8520	91.9	0
55	8520	92	0
55	8520	92.1	0
55	8520	92.2	0
55	8520	92.3	0
55	8520	92.4	0
55	8520	92.5	0
55	8520	92.6	0
55	8520	92.7	0
55	8520	92.8	0
55	8520	92.9	0
55	8520	93	0
55	8520	93.1	0
55	8520	93.2	0
55	8520	93.3	0
55	8520	93.4	0
55	8520	93.5	0
55	8520	93.6	0
55	8520	93.7	0
55	8520	93.8	0
55	8520	93.9	0
55	8520	94	0
55	8520	94.1	0
55	8520	94.2	0
55	8520	94.3	0
55	8520	94.4	0
55	8520	94.5	0
55	8520	94.6	0
55	8520	94.7	0
55	8520	94.8	0
55	8520	94.9	0
55	8520	95	0
55	8520	95.1	0
55	8520	95.2	0
55	8520	95.3	0
55	8520	95.4	0
55	8520	95.5	0
55	8520	95.6	0
55	8520	95.7	0
55	8520	95.8	0
55	8520	95.9	0
55	8520	96	0
55	8520	96.1	0
55	8520	96.2	0
55	8520	96.3	0
55	8520	96.4	0
55	8520	96.5	0
55	8520	96.6	0
55	8520	96.7	0
55	8520	96.8	0
55	8520	96.9	0
55	8520	97	0
55	8520	97.1	0
55	8520	97.2	0
55	8520	97.3	0
55	8520	97.4	0
55	8520	97.5	0
55	8520	97.6	0
55	8520	97.7	0
55	8520	97.8	0
55	8520	97.9	0
55	8520	98	0
55	8520	98.1	0
55	8520	98.2	0
55	8520	98.3	0
55	8520	98.4	0
55	8520	98.5	0
55	8520	98.6	0
55	8520	98.7	0
55	8520	98.8	0
55	8520	98.9	0
55	8520	99	0
55	8520	99.1	0
55	8520	99.2	0
55	8520	99.3	0
55	8520	99.4	0
55	8520	99.5	0
55	8520	99.6	0
55	8520	99.7	0
55	8520	99.8	0
55	8520	99.9	0
55	8520	100	0
55	8520	100.1	0
55	8520	100.2	0
55	8520	100.3	0
55	8520	100.4	0
55	8520	100.5	0
55	8520	100.6	0
55	8520	100.7	0
55	8520	100.8	0
55	8520	100.9	0
55	8520	101	0
55	8520	101.1	0
55	8520	101.2	0
55	8520	101.3	0
55	8520	101.4	0
55	8520	101.5	0
55	8520	101.6	0
55	8520	101.7	0
55	8520	101.8	0
55	8520	101.9	0
55	8520	102	0
55	8520	102.1	0
55	8520	102.2	0
55	8520	102.3	0
55	8520	102.4	0
55	8520	102.5	0
55	8520	102.6	0
55	8520	102.7	0
55	8520	102.8	0
55	8520	102.9	0
55	8520	103	0
55	8520	103.1	0
55	8520	103.2	0
55	8520	103.3	0
55	8520	103.4	0
55	8520	103.5	0
55	8520	103.6	0
55	8520	103.7	0
55	8520	103.8	0
55	8520	103.9	0
55	8520	104	0
55	8520	104.1	0
55	8520	104.2	0
55	8520	104.3	0
55	8520	104.4	0
55	8520	104.5	0
55	8520	104.6	0
55	8520	104.7	0
55	8520	104.8	0
55	8520	104.9	0
55	8520	105	0
55	8520	105.1	0
55	8520	105.2	0
55	8520	105.3	0
55	8520	105.4	0
55	8520	105.5	0
55	8520	105.6	0
55	8520	105.7	0
55	8520	105.8	0
55	8520	105.9	0
55	8520	106	0
55	8520	106.1	0
55	8520	106.2	0
55	8520	106.3	0
55	8520	106.4	0
55	8520	106.5	0
55	8520	106.6	0
55	8520	106.7	0
55	8520	106.8	0
55	8520	106.9	0
55	8520	107	0
55	8520	107.1	0
55	8520	107.2	0
55	8520	107.3	0
55	8520	107.4	0
55	8520	107.5	0
55	8520	107.6	0
55	8520	107.7	0
55	8520	107.8	0
55	8520	107.9	0
55	8520	108	0
55	8520	108.1	0
55	8520	108.2	0
55	8520	108.3	0
55	8520	108.4	0
55	8520	108.5	0
55	8520	108.6	0
55	8520	108.7	0
55	8520	108.8	0
55	8520	108.9	0
55	8520	109	0
55	8520	109.1	0
55	8520	109.2	0
55	8520	109.3	0
55	8520	109.4	0
55	8520	109.5	0
55	8520	109.6	0
55	8520	109.7	0
55	8520	109.8	0
55	8520	109.9	0
55	8520	110	0
55	8520	110.1	0
55	8520	110.2	0
55	8520	110.3	0
55	8520	110.4	0
55	8520	110.5	0
55	8520	110.6	0
55	8520	110.7	0
55	8520	110.8	0
55	8520	110.9	0
55	8520	111	0
55	8520	111.1	0
55	8520	111.2	0
55	8520	111.3	0
55	8520	111.4	0
55	8520	111.5	0
55	8520	111.6	0
55	8520	111.7	0
55	8520	111.8	0
55	8520	111.9	0
55	8520	112	0
55	8520	112.1	0
55	8520	112.2	0
55	8520	112.3	0
55	8520	112.4	0
55	8520	112.5	0
55	8520	112.6	0
55	8520	112.7	0
55	8520	112.8	0
55	8520	112.9	0
55	8520	113	0
55	8520	113.1	0
55	8520	113.2	0
55	8520	113.3	0
55	8520	113.4	0
55	8520	113.5	0
55	8520	113.6	0
55	8520	113.7	0
55	8520	113.8	0
55	8520	113.9	0
55	8520	114	0
55	8520	114.1	0
55	8520	114.2	0
55	8520	114.3	0
55	8520	114.4	0
55	8520	114.5	0
55	8520	114.6	0
55	8520	114.7	0
55	8520	114.8	0
55	8520	114.9	0
55	8520	115	0
55	8520	115.1	0
55	8520	115.2	0
55	8520	115.3	0
55	8520	115.4	0
55	8520	115.5	0
55	8520	115.6	0
55	8520	115.7	0
55	8520	115.8	0
55	8520	115.9	0
55	8520	116	0
55	8520	116.1	0
55	8520	116.2	0
55	8520	116.3	0
55	8520	116.4	0
55	8520	116.5	0
55	8520	116.6	0
55	8520	116.7	0
55	8520	116.8	0
55	8520	116.9	0
55	8520	117	0
55	8520	117.1	0
55	8520	117.2	0
55	8520	117.3	0
55	8520	117.4	0
55	8520	117.5	0
55	8520	117.6	0
55	8520	117.7	0
55	8520	117.8	0
55	8520	117.9	0
55	8520	118	0
55	8520	118.1	0
55	8520	118.2	0
55	8520	118.3	0
55	8520	118.4	0
55	8520	118.5	0
55	8520	118.6	0
55	8520	118.7	0
55	8520	118.8	0
55	8520	118.9	0
55	8520	119	0
55	8520	119.1	0
55	8520	119.2	0
55	8520	119.3	0
55	8520	119.4	0
55	8520	119.5	0
55	8520	119.6	0
55	8520	119.7	0
55	8520	119.8	0
55	8520	119.9	0
55	8520	120	0
55	8520	120.1	0
55	8520	120.2	0
55	8520	120.3	0
55	8520	120.4	0
55	8520	120.5	0
55	8520	120.6	0
55	8520	120.7	0
55	8520	120.8	0
55	8520	120.9	0
55	8520	121	0
55	8520	121.1	0
55	8520	121.2	0
55	8520	121.3	0
55	8520	121.4	0
55	8520	121.5	0
55	8520	121.6	0
55	8520	121.7	0
55	8520	121.8	0
55	8520	121.9	0
55	8520	122	0
55	8520	122.1	0
55	8520	122.2	0
55	8520	122.3	0
55	8520	122.4	0
55	8520	122.5	0
55	8520	122.6	0
55	8520	122.7	0
55	8520	122.8	0
55	8520	122.9	0
55	8520	123	0
55	8520	123.1	0
55	8520	123.2	0
55	8520	123.3	0
55	8520	123.4	0
55	8520	123.5	0
55	8520	123.6	0
55	8520	123.7	0
55	8520	123.8	0
55	8520	123.9	0
55	8520	124	0
55	8520	124.1	0
55	8520	124.2	0
55	8520	124.3	0
55	8520	124.4	0
55	8520	124.5	0
55	8520	124.6	0
55	8520	124.7	0
55	8520	124.8	0
55	8520	124.9	0
55	8520	125	0
55	8520	125.1	0
55	8520	125.2	0
55	8520	125.3	0
55	8520	125.4	0
55	8520	125.5	0
55	8520	125.6	0
55	8520	125.7	0
55	8520	125.8	0
55	8520	125.9	0
55	8520	126	0
55	8520	126.1	0
55	8520	126.2	0
55	8520	126.3	0
55	8520	126.4	0
55	8520	126.5	0
55	8520	126.6	0
55	8520	126.7	0
55	8520	126.8	0
55	8520	126.9	0
55	8520	127	0
55	8520	127.1	0
55	8520	127.2	0
55	8520	127.3	0
55	8520	127.4	0
55	8520	127.5	0
55	8520	127.6	0
55	8520	127.7	0
55	8520	127.8	0
55	8520	127.9	0
55	8520	128	0
55	8520	128.1	0
55	8520	128.2	0
55	8520	128.3	0
55	8520	128.4	0
55	8520	128.5	0
55	8520	128.6	0
55	8520	128.7	0
55	8520	128.8	0
55	8520	128.9	0
55	8520	129	0
55	8520	129.1	0
55	8520	129.2	0
55	8520	129.3	0
55	8520	129.4	0
55	8520	129.5	0
55	8520	129.6	0
55	8520	129.7	0
55	8520	129.8	0
55	8520	129.9	0
55	8520	130	0
55	8520	130.1	0
55	8520	130.2	0
55	8520	130.3	0
55	8520	130.4	0
55	8520	130.5	0
55	8520	130.6	0
55	8520	130.7	0
55	8520	130.8	0
55	8520	130.9	0
55	8520	131	0
55	8520	131.1	0
55	8520	131.2	0
55	8520	131.3	0
55	8520	131.4	0
55	8520	131.5	0
55	8520	131.6	0
55	8520	131.7	0
55	8520	131.8	0
55	8520	131.9	0
55	8520	132	0
55	8520	132.1	0
55	8520	132.2	0
55	8520	132.3	0
55	8520	132.4	0
55	8520	132.5	0
55	8520	132.6	0
55	8520	132.7	0
55	8520	132.8	0
55	8520	132.9	0
55	8520	133	0
55	8520	133.1	0
55	8520	133.2	0
55	8520	133.3	0
55	8520	133.4	0
55	8520	133.5	0
55	8520	133.6	0
55	8520	133.7	0
55	8520	133.8	0
55	8520	133.9	0
55	8520	134	0
55	8520	134.1	0
55	8520	134.2	0
55	8520	134.3	0
55	8520	134.4	0
55	8520	134.5	0
55	8520	134.6	0
55	8520	134.7	0
55	8520	134.8	0
55	8520	134.9	0
55	8520	135	0
55	8520	135.1	0
55	8520	135.2	0
55	8520	135.3	0
55	8520	135.4	0
55	8520	135.5	0
55	8520	135.6	0
55	8520	135.7	0
55	8520	135.8	0
55	8520	135.9	0
55	8520	136	0
55	8520	136.1	0
55	8520	136.2	0
55	8520	136.3	0
55	8520	136.4	0
55	8520	136.5	0
55	8520	136.6	0
55	8520	136.7	0
55	8520	136.8	0
55	8520	136.9	0
55	8520	137	0
55	8520	137.1	0
55	8520	137.2	0
55	8520	137.3	0
55	8520	137.4	0
55	8520	137.5	0
55	8520	137.6	0
55	8520	137.7	0
55	8520	137.8	0
55	8520	137.9	0
55	8520	138	0
55	8520	138.1	0
55	8520	138.2	0
55	8520	138.3	0
55	8520	138.4	0
55	8520	138.5	0
55	8520	138.6	0
55	8520	138.7	0
55	8520	138.8	0
55	8520	138.9	0
55	8520	139	0
55	8520	139.1	0
55	8520	139.2	0
55	8520	139.3	0
55	8520	139.4	0
55	8520	139.5	0
55	8520	139.6	0
55	8520	139.7	0
55	8520	139.8	0
55	8520	139.9	0
55	8520	140	0
55	8520	140.1	0
55	8520	140.2	0
55	8520	140.3	0
55	8520	140.4	0
55	8520	140.5	0
55	8520	140.6	0
55	8520	140.7	0
55	8520	140.8	0
55	8520	140.9	0
55	8520	141	0
55	8520	141.1	0
55	8520	141.2	0
55	8520	141.3	0
55	8520	141.4	0
55	8520	141.5	0
55	8520	141.6	0
55	8520	141.7	0
55	8520	141.8	0
55	8520	141.9	0
55	8520	142	0
55	8520	142.1	0
55	8520	142.2	0
55	8520	142.3	0
55	8520	142.4	0
55	8520	142.5	0
55	8520	142.6	0
55	8520	142.7	0
55	8520	142.8	0
55	8520	142.9	0
55	8520	143	0
55	8520	143.1	0
55	8520	143.2	0
55	8520	143.3	0
55	8520	143.4	0
55	8520	143.5	0
55	8520	143.6	0
55	8520	143.7	0
55	8520	143.8	0
55	8520	143.9	0
55	8520	144	0
55	8520	144.1	0
55	8520	144.2	0
55	8520	144.3	0
55	8520	144.4	0
55	8520	144.5	0
55	8520	144.6	0
55	8520	144.7	0
55	8520	144.8	0
55	8520	144.9	0
55	8520	145	0
55	8520	145.1	0
55	8520	145.2	0
55	8520	145.3	0
55	8520	145.4	0
55	8520	145.5	0
55	8520	145.6	0
55	8520	145.7	0
55	8520	145.8	0
55	8520	145.9	0
55	8520	146	0
55	8520	146.1	0
55	8520	146.2	0
55	8520	146.3	0
55	8520	146.4	0
55	8520	146.5	0
55	8520	146.6	0
55	8520	146.7	0
55	8520	146.8	0
55	8520	146.9	0
55	8520	147	0
55	8520	147.1	0
55	8520	147.2	0
55	8520	147.3	0
55	8520	147.4	0
55	8520	147.5	0
55	8520	147.6	0
55	8520	147.7	0
55	8520	147.8	0
55	8520	147.9	0
55	8520	148	0
55	8520	148.1	0
55	8520	148.2	0
55	8520	148.3	0
55	8520	148.4	0
55	8520	148.5	0
55	8520	148.6	0
55	8520	148.7	0
55	8520	148.8	0
55	8520	148.9	0
55	8520	149	0
55	8520	149.1	0
55	8520	149.2	0
55	8520	149.3	0
55	8520	149.4	0
55	8520	149.5	0
55	8520	149.6	0
55	8520	149.7	0
55	8520	149.8	0
55	8520	149.9	0
55	8520	150	0

