version 2
run General-0-20210711-16:35:28-15711
attr configname General
attr datetime 20210711-16:35:28
attr experiment General
attr inifile simpledelay.ini
attr iterationvars ""
attr iterationvarsf ""
attr measurement ""
attr network ntuattack.simulations.delay.SimpleDelayAttack
attr processid 15711
attr repetition 0
attr replication #0
attr resultdir results
attr runnumber 0
attr seedset 0
param **.wlan[*].typename "\"AckingWirelessInterface\""
param **.wlan[*].bitrate 2Mbps
param **.wlan[*].mac.headerLength 23B
param **.wlan[*].radio.typename "\"UnitDiskRadio\""
param **.wlan[*].radio.transmitter.headerLength 96b
param **.wlan[*].radio.transmitter.communicationRange 200m
param **.wlan[*].radio.transmitter.interferenceRange 0m
param **.wlan[*].radio.transmitter.detectionRange 0m
param **.wlan[*].radio.receiver.ignoreInterference true
param **.hasStatus true
param *.visualizer.sceneVisualizer.descriptionFigure "\"title\""
param *.visualizer.mediumVisualizer.displaySignals true
param *.visualizer.physicalLinkVisualizer.displayLinks true
param *.visualizer.dataLinkVisualizer.displayLinks true
param *.visualizer.networkRouteVisualizer.displayRoutes true
param *.sender.numApps 1
param *.sender.app[0].typename "\"UdpBasicApp\""
param *.sender.app[0].destAddresses "\"receiver\""
param *.sender.app[0].destPort 1000
param *.sender.app[0].sendInterval "0.5s + uniform(-0.001s,0.001s)"
param *.sender.app[0].startTime 0s
param *.sender.app[0].messageLength 512Byte
param *.sender.app[0].packetName "\"UDPdata\""
param *.receiver.numApps 1
param *.receiver.app[0].typename "\"UdpSink\""
param *.receiver.app[0].localPort 1000

scalar SimpleDelayAttack.radioMedium.propagation "Arrival computation count" 1224
scalar SimpleDelayAttack.radioMedium "transmission count" 612
scalar SimpleDelayAttack.radioMedium "signal send count" 1224
scalar SimpleDelayAttack.radioMedium "reception computation count" 1224
scalar SimpleDelayAttack.radioMedium "interference computation count" 4899
scalar SimpleDelayAttack.radioMedium "reception decision computation count" 918
scalar SimpleDelayAttack.radioMedium "listening decision computation count" 2757
scalar SimpleDelayAttack.radioMedium "reception cache hit" 84
attr unit %
scalar SimpleDelayAttack.radioMedium "interference cache hit" 66.666666666667
attr unit %
scalar SimpleDelayAttack.radioMedium "noise cache hit" 0
attr unit %
scalar SimpleDelayAttack.radioMedium "snir cache hit" 50
attr unit %
scalar SimpleDelayAttack.radioMedium "reception decision cache hit" 50
attr unit %
scalar SimpleDelayAttack.radioMedium "reception result cache hit" 0
attr unit %
scalar SimpleDelayAttack.sender.lo[0].lo rcvdPkFromHl:count 0
attr interpolationmode none
attr source packetReceivedFromUpper
attr title "packets received from higher layer, count"
scalar SimpleDelayAttack.sender.lo[0].lo rcvdPkFromHl:sum(packetBytes) 0
attr interpolationmode none
attr source packetReceivedFromUpper
attr title "packets received from higher layer, sum(packetBytes)"
scalar SimpleDelayAttack.sender.lo[0].lo passedUpPk:count 0
attr interpolationmode none
attr source packetSentToUpper
attr title "packets passed to higher layer, count"
scalar SimpleDelayAttack.sender.lo[0].lo passedUpPk:sum(packetBytes) 0
attr interpolationmode none
attr source packetSentToUpper
attr title "packets passed to higher layer, sum(packetBytes)"
scalar SimpleDelayAttack.sender.wlan[0].mac.queue packetPopped:count 303
attr interpolationmode none
attr title "packet popped, count"
scalar SimpleDelayAttack.sender.wlan[0].mac.queue packetPopped:sum(packetBytes) 162108
attr interpolationmode none
attr title "packet popped, sum(packetBytes)"
statistic SimpleDelayAttack.sender.wlan[0].mac.queue queueingTime:histogram
field count 303
field mean 0
field stddev 0
field min 0
field max 0
field sum 0
field sqrsum 0
attr interpolationmode none
attr source queueingTime(packetPopped)
attr title "queueing times, histogram"
attr unit s
bin	-inf	0
bin	-0.5	0
bin	-0.48	0
bin	-0.46	0
bin	-0.44	0
bin	-0.42	0
bin	-0.4	0
bin	-0.38	0
bin	-0.36	0
bin	-0.34	0
bin	-0.32	0
bin	-0.3	0
bin	-0.28	0
bin	-0.26	0
bin	-0.24	0
bin	-0.22	0
bin	-0.2	0
bin	-0.18	0
bin	-0.16	0
bin	-0.14	0
bin	-0.12	0
bin	-0.1	0
bin	-0.08	0
bin	-0.06	0
bin	-0.04	0
bin	-0.02	0
bin	0	303
bin	0.02	0
bin	0.04	0
bin	0.06	0
bin	0.08	0
bin	0.1	0
bin	0.12	0
bin	0.14	0
bin	0.16	0
bin	0.18	0
bin	0.2	0
bin	0.22	0
bin	0.24	0
bin	0.26	0
bin	0.28	0
bin	0.3	0
bin	0.32	0
bin	0.34	0
bin	0.36	0
bin	0.38	0
bin	0.4	0
bin	0.42	0
bin	0.44	0
bin	0.46	0
bin	0.48	0
bin	0.5	0
scalar SimpleDelayAttack.sender.wlan[0].mac.queue queueLength:max 1
attr interpolationmode sample-hold
attr source "count(packetPushed) - count(packetPopped) - count(packetRemoved) - count(packetDropped)"
attr title "queue length, max"
scalar SimpleDelayAttack.sender.wlan[0].mac.queue queueLength:timeavg 0
attr interpolationmode sample-hold
attr source "count(packetPushed) - count(packetPopped) - count(packetRemoved) - count(packetDropped)"
attr title "queue length, timeavg"
scalar SimpleDelayAttack.sender.wlan[0].mac.queue packetPushed:count 303
attr interpolationmode none
attr title "packet pushed, count"
scalar SimpleDelayAttack.sender.wlan[0].mac.queue packetPushed:sum(packetBytes) 162108
attr interpolationmode none
attr title "packet pushed, sum(packetBytes)"
scalar SimpleDelayAttack.sender.wlan[0].mac.queue packetDropQueueOverflow:count 0
attr interpolationmode none
attr source packetDropReasonIsQueueOverflow(packetDropped)
attr title "packet drops: queue overflow, count"
scalar SimpleDelayAttack.sender.wlan[0].mac.queue packetDropQueueOverflow:sum(packetBytes) 0
attr interpolationmode none
attr source packetDropReasonIsQueueOverflow(packetDropped)
attr title "packet drops: queue overflow, sum(packetBytes)"
scalar SimpleDelayAttack.sender.wlan[0].mac.queue packetRemoved:count 0
attr interpolationmode none
attr title "packets removed, count"
scalar SimpleDelayAttack.sender.wlan[0].mac.queue packetRemoved:sum(packetBytes) 0
attr interpolationmode none
attr title "packets removed, sum(packetBytes)"
scalar SimpleDelayAttack.sender.wlan[0].mac rcvdPkFromLl:count 306
attr interpolationmode none
attr source packetReceivedFromLower
attr title "packets received from lower layer, count"
scalar SimpleDelayAttack.sender.wlan[0].mac rcvdPkFromLl:sum(packetBytes) 169250
attr interpolationmode none
attr source packetReceivedFromLower
attr title "packets received from lower layer, sum(packetBytes)"
scalar SimpleDelayAttack.sender.wlan[0].mac sentDownPk:count 303
attr interpolationmode none
attr source packetSentToLower
attr title "packets sent to lower layer, count"
scalar SimpleDelayAttack.sender.wlan[0].mac sentDownPk:sum(packetBytes) 169077
attr interpolationmode none
attr source packetSentToLower
attr title "packets sent to lower layer, sum(packetBytes)"
scalar SimpleDelayAttack.sender.wlan[0].mac rcvdPkFromHl:count 303
attr interpolationmode none
attr source packetReceivedFromUpper
attr title "packets received from higher layer, count"
scalar SimpleDelayAttack.sender.wlan[0].mac rcvdPkFromHl:sum(packetBytes) 162108
attr interpolationmode none
attr source packetReceivedFromUpper
attr title "packets received from higher layer, sum(packetBytes)"
scalar SimpleDelayAttack.sender.wlan[0].mac passedUpPk:count 5
attr interpolationmode none
attr source packetSentToUpper
attr title "packets passed to higher layer, count"
scalar SimpleDelayAttack.sender.wlan[0].mac passedUpPk:sum(packetBytes) 184
attr interpolationmode none
attr source packetSentToUpper
attr title "packets passed to higher layer, sum(packetBytes)"
scalar SimpleDelayAttack.sender.wlan[0].mac packetDropIncorrectlyReceived:count 0
attr interpolationmode none
attr source packetDropReasonIsIncorrectlyReceived(packetDropped)
attr title "packet drop: incorrectly received, count"
scalar SimpleDelayAttack.sender.wlan[0].mac packetDropIncorrectlyReceived:sum(packetBytes) 0
attr interpolationmode none
attr source packetDropReasonIsIncorrectlyReceived(packetDropped)
attr title "packet drop: incorrectly received, sum(packetBytes)"
scalar SimpleDelayAttack.sender.wlan[0].mac packetDropInterfaceDown:count 0
attr interpolationmode none
attr source packetDropReasonIsInterfaceDown(packetDropped)
attr title "packet drop: interface down, count"
scalar SimpleDelayAttack.sender.wlan[0].mac packetDropInterfaceDown:sum(packetBytes) 0
attr interpolationmode none
attr source packetDropReasonIsInterfaceDown(packetDropped)
attr title "packet drop: interface down, sum(packetBytes)"
scalar SimpleDelayAttack.sender.wlan[0].mac packetDropNotAddressedToUs:count 301
attr interpolationmode none
attr source packetDropReasonIsNotAddressedToUs(packetDropped)
attr title "packet drop: not addressed to us, count"
scalar SimpleDelayAttack.sender.wlan[0].mac packetDropNotAddressedToUs:sum(packetBytes) 168951
attr interpolationmode none
attr source packetDropReasonIsNotAddressedToUs(packetDropped)
attr title "packet drop: not addressed to us, sum(packetBytes)"
scalar SimpleDelayAttack.sender.wlan[0].mac linkBroken:count 0
attr interpolationmode none
attr source linkBroken
attr title "link break, count"
scalar SimpleDelayAttack.sender.wlan[0].radio radioMode:count 3
attr interpolationmode sample-hold
attr source radioModeChanged
attr title "Radio mode, count"
scalar SimpleDelayAttack.sender.wlan[0].radio receptionState:count 613
attr interpolationmode sample-hold
attr source receptionStateChanged
attr title "Radio reception state, count"
scalar SimpleDelayAttack.sender.wlan[0].radio transmissionState:count 607
attr interpolationmode sample-hold
attr source transmissionStateChanged
attr title "Radio transmission state, count"
statistic SimpleDelayAttack.sender.wlan[0].radio minSnir:histogram
field count 0
field mean -nan
field stddev nan
field min nan
field max nan
field sum 0
field sqrsum 0
attr source minimumSnir(packetSentToUpper)
attr title "Min SNIR, histogram"
bin	-inf	0
bin	0	0
bin	1	0
statistic SimpleDelayAttack.sender.wlan[0].radio packetErrorRate:histogram
field count 306
field mean 0
field stddev 0
field min 0
field max 0
field sum 0
field sqrsum 0
attr source packetErrorRate(packetSentToUpper)
attr title "Packet error rate, histogram"
bin	-inf	0
bin	-0.5	0
bin	-0.48	0
bin	-0.46	0
bin	-0.44	0
bin	-0.42	0
bin	-0.4	0
bin	-0.38	0
bin	-0.36	0
bin	-0.34	0
bin	-0.32	0
bin	-0.3	0
bin	-0.28	0
bin	-0.26	0
bin	-0.24	0
bin	-0.22	0
bin	-0.2	0
bin	-0.18	0
bin	-0.16	0
bin	-0.14	0
bin	-0.12	0
bin	-0.1	0
bin	-0.08	0
bin	-0.06	0
bin	-0.04	0
bin	-0.02	0
bin	0	306
bin	0.02	0
bin	0.04	0
bin	0.06	0
bin	0.08	0
bin	0.1	0
bin	0.12	0
bin	0.14	0
bin	0.16	0
bin	0.18	0
bin	0.2	0
bin	0.22	0
bin	0.24	0
bin	0.26	0
bin	0.28	0
bin	0.3	0
bin	0.32	0
bin	0.34	0
bin	0.36	0
bin	0.38	0
bin	0.4	0
bin	0.42	0
bin	0.44	0
bin	0.46	0
bin	0.48	0
bin	0.5	0
statistic SimpleDelayAttack.sender.wlan[0].radio bitErrorRate:histogram
field count 306
field mean 0
field stddev 0
field min 0
field max 0
field sum 0
field sqrsum 0
attr source bitErrorRate(packetSentToUpper)
attr title "Bit error rate, histogram"
bin	-inf	0
bin	-0.5	0
bin	-0.48	0
bin	-0.46	0
bin	-0.44	0
bin	-0.42	0
bin	-0.4	0
bin	-0.38	0
bin	-0.36	0
bin	-0.34	0
bin	-0.32	0
bin	-0.3	0
bin	-0.28	0
bin	-0.26	0
bin	-0.24	0
bin	-0.22	0
bin	-0.2	0
bin	-0.18	0
bin	-0.16	0
bin	-0.14	0
bin	-0.12	0
bin	-0.1	0
bin	-0.08	0
bin	-0.06	0
bin	-0.04	0
bin	-0.02	0
bin	0	306
bin	0.02	0
bin	0.04	0
bin	0.06	0
bin	0.08	0
bin	0.1	0
bin	0.12	0
bin	0.14	0
bin	0.16	0
bin	0.18	0
bin	0.2	0
bin	0.22	0
bin	0.24	0
bin	0.26	0
bin	0.28	0
bin	0.3	0
bin	0.32	0
bin	0.34	0
bin	0.36	0
bin	0.38	0
bin	0.4	0
bin	0.42	0
bin	0.44	0
bin	0.46	0
bin	0.48	0
bin	0.5	0
statistic SimpleDelayAttack.sender.wlan[0].radio symbolErrorRate:histogram
field count 306
field mean 0
field stddev 0
field min 0
field max 0
field sum 0
field sqrsum 0
attr source symbolErrorRate(packetSentToUpper)
attr title "Symbol error rate, histogram"
bin	-inf	0
bin	-0.5	0
bin	-0.48	0
bin	-0.46	0
bin	-0.44	0
bin	-0.42	0
bin	-0.4	0
bin	-0.38	0
bin	-0.36	0
bin	-0.34	0
bin	-0.32	0
bin	-0.3	0
bin	-0.28	0
bin	-0.26	0
bin	-0.24	0
bin	-0.22	0
bin	-0.2	0
bin	-0.18	0
bin	-0.16	0
bin	-0.14	0
bin	-0.12	0
bin	-0.1	0
bin	-0.08	0
bin	-0.06	0
bin	-0.04	0
bin	-0.02	0
bin	0	306
bin	0.02	0
bin	0.04	0
bin	0.06	0
bin	0.08	0
bin	0.1	0
bin	0.12	0
bin	0.14	0
bin	0.16	0
bin	0.18	0
bin	0.2	0
bin	0.22	0
bin	0.24	0
bin	0.26	0
bin	0.28	0
bin	0.3	0
bin	0.32	0
bin	0.34	0
bin	0.36	0
bin	0.38	0
bin	0.4	0
bin	0.42	0
bin	0.44	0
bin	0.46	0
bin	0.48	0
bin	0.5	0
scalar SimpleDelayAttack.sender.ipv4.ip packetDropAddressResolutionFailed:count 0
attr interpolationmode none
attr source packetDropReasonIsAddressResolutionFailed(packetDropped)
attr title "packet drop: address resolution failed, count"
scalar SimpleDelayAttack.sender.ipv4.ip packetDropAddressResolutionFailed:sum(packetBytes) 0
attr interpolationmode none
attr source packetDropReasonIsAddressResolutionFailed(packetDropped)
attr title "packet drop: address resolution failed, sum(packetBytes)"
scalar SimpleDelayAttack.sender.ipv4.ip packetDropHopLimitReached:count 0
attr interpolationmode none
attr source packetDropReasonIsHopLimitReached(packetDropped)
attr title "packet drop: hop limit reached, count"
scalar SimpleDelayAttack.sender.ipv4.ip packetDropHopLimitReached:sum(packetBytes) 0
attr interpolationmode none
attr source packetDropReasonIsHopLimitReached(packetDropped)
attr title "packet drop: hop limit reached, sum(packetBytes)"
scalar SimpleDelayAttack.sender.ipv4.ip packetDropForwardingDisabled:count 0
attr interpolationmode none
attr source packetDropReasonIsForwardingDisabled(packetDropped)
attr title "packet drop: forwarding disabled, count"
scalar SimpleDelayAttack.sender.ipv4.ip packetDropForwardingDisabled:sum(packetBytes) 0
attr interpolationmode none
attr source packetDropReasonIsForwardingDisabled(packetDropped)
attr title "packet drop: forwarding disabled, sum(packetBytes)"
scalar SimpleDelayAttack.sender.ipv4.ip packetDropNoInterfaceFound:count 0
attr interpolationmode none
attr source packetDropReasonIsNoInterfaceFound(packetDropped)
attr title "packet drop: no interface found, count"
scalar SimpleDelayAttack.sender.ipv4.ip packetDropNoInterfaceFound:sum(packetBytes) 0
attr interpolationmode none
attr source packetDropReasonIsNoInterfaceFound(packetDropped)
attr title "packet drop: no interface found, sum(packetBytes)"
scalar SimpleDelayAttack.sender.ipv4.ip packetDropNoRouteFound:count 0
attr interpolationmode none
attr source packetDropReasonIsNoRouteFound(packetDropped)
attr title "packet drop: no route found, count"
scalar SimpleDelayAttack.sender.ipv4.ip packetDropNoRouteFound:sum(packetBytes) 0
attr interpolationmode none
attr source packetDropReasonIsNoRouteFound(packetDropped)
attr title "packet drop: no route found, sum(packetBytes)"
scalar SimpleDelayAttack.sender.ipv4.ip packetDropUndefined:count 0
attr interpolationmode none
attr source packetDropReasonIsUndefined(packetDropped)
attr title "packet drop: undefined, count"
scalar SimpleDelayAttack.sender.ipv4.ip packetDropUndefined:sum(packetBytes) 0
attr interpolationmode none
attr source packetDropReasonIsUndefined(packetDropped)
attr title "packet drop: undefined, sum(packetBytes)"
scalar SimpleDelayAttack.sender.ipv4.arp arpResolutionFailed:count 0
attr title "ARP failed resolutions, count"
scalar SimpleDelayAttack.sender.ipv4.arp arpResolutionCompleted:count 3
attr title "ARP completed resolutions, count"
scalar SimpleDelayAttack.sender.ipv4.arp arpResolutionInitiated:count 1
attr title "ARP initiated resolutions, count"
scalar SimpleDelayAttack.sender.ipv4.arp arpReplySent:count 1
attr source arpReplySent
attr title "ARP replies sent, count"
scalar SimpleDelayAttack.sender.ipv4.arp arpReplySent:sum(packetBytes) 28
attr source arpReplySent
attr title "ARP replies sent, sum(packetBytes)"
scalar SimpleDelayAttack.sender.ipv4.arp arpRequestSent:count 1
attr source arpRequestSent
attr title "ARP request sent, count"
scalar SimpleDelayAttack.sender.ipv4.arp arpRequestSent:sum(packetBytes) 28
attr source arpRequestSent
attr title "ARP request sent, sum(packetBytes)"
scalar SimpleDelayAttack.sender.udp packetReceived:count 2
attr interpolationmode none
attr source packetReceived
attr title "packets received, count"
scalar SimpleDelayAttack.sender.udp packetReceived:sum(packetBytes) 60
attr interpolationmode none
attr source packetReceived
attr title "packets received, sum(packetBytes)"
scalar SimpleDelayAttack.sender.udp packetSent:count 301
attr interpolationmode none
attr source packetSent
attr title "packets sent, count"
scalar SimpleDelayAttack.sender.udp packetSent:sum(packetBytes) 156032
attr interpolationmode none
attr source packetSent
attr title "packets sent, sum(packetBytes)"
scalar SimpleDelayAttack.sender.udp passedUpPk:count 2
attr interpolationmode none
attr source packetSentToUpper
attr title "packets passed up, count"
scalar SimpleDelayAttack.sender.udp droppedPkWrongPort:count 0
attr interpolationmode none
attr source packetDropReasonIsNoPortFound(packetDropped)
attr title "packets dropped (wrong port), count"
scalar SimpleDelayAttack.sender.udp droppedPkBadChecksum:count 0
attr interpolationmode none
attr source packetDropReasonIsIncorrectlyReceived(packetDropped)
attr title "packets dropped (checksum error), count"
scalar SimpleDelayAttack.sender.app[0] "packets sent" 300
scalar SimpleDelayAttack.sender.app[0] "packets received" 0
scalar SimpleDelayAttack.sender.app[0] packetReceived:count 0
attr interpolationmode none
attr source packetReceived
attr title "packets received, count"
scalar SimpleDelayAttack.sender.app[0] packetReceived:sum(packetBytes) 0
attr interpolationmode none
attr source packetReceived
attr title "packets received, sum(packetBytes)"
statistic SimpleDelayAttack.sender.app[0] rcvdPkLifetime:stats
field count 0
field mean -nan
field stddev nan
field min nan
field max nan
field sum 0
field sqrsum 0
attr interpolationmode none
attr source dataAge(packetReceived)
attr title "received packet lifetime, stats"
attr unit s
scalar SimpleDelayAttack.sender.app[0] packetSent:count 300
attr interpolationmode none
attr source packetSent
attr title "packets sent, count"
scalar SimpleDelayAttack.sender.app[0] packetSent:sum(packetBytes) 153600
attr interpolationmode none
attr source packetSent
attr title "packets sent, sum(packetBytes)"
scalar SimpleDelayAttack.receiver.lo[0].lo rcvdPkFromHl:count 0
attr interpolationmode none
attr source packetReceivedFromUpper
attr title "packets received from higher layer, count"
scalar SimpleDelayAttack.receiver.lo[0].lo rcvdPkFromHl:sum(packetBytes) 0
attr interpolationmode none
attr source packetReceivedFromUpper
attr title "packets received from higher layer, sum(packetBytes)"
scalar SimpleDelayAttack.receiver.lo[0].lo passedUpPk:count 0
attr interpolationmode none
attr source packetSentToUpper
attr title "packets passed to higher layer, count"
scalar SimpleDelayAttack.receiver.lo[0].lo passedUpPk:sum(packetBytes) 0
attr interpolationmode none
attr source packetSentToUpper
attr title "packets passed to higher layer, sum(packetBytes)"
scalar SimpleDelayAttack.receiver.wlan[0].mac.queue packetPopped:count 3
attr interpolationmode none
attr title "packet popped, count"
scalar SimpleDelayAttack.receiver.wlan[0].mac.queue packetPopped:sum(packetBytes) 104
attr interpolationmode none
attr title "packet popped, sum(packetBytes)"
statistic SimpleDelayAttack.receiver.wlan[0].mac.queue queueingTime:histogram
field count 3
field mean 0
field stddev 0
field min 0
field max 0
field sum 0
field sqrsum 0
attr interpolationmode none
attr source queueingTime(packetPopped)
attr title "queueing times, histogram"
attr unit s
bin	-inf	0
bin	-0.5	0
bin	-0.48	0
bin	-0.46	0
bin	-0.44	0
bin	-0.42	0
bin	-0.4	0
bin	-0.38	0
bin	-0.36	0
bin	-0.34	0
bin	-0.32	0
bin	-0.3	0
bin	-0.28	0
bin	-0.26	0
bin	-0.24	0
bin	-0.22	0
bin	-0.2	0
bin	-0.18	0
bin	-0.16	0
bin	-0.14	0
bin	-0.12	0
bin	-0.1	0
bin	-0.08	0
bin	-0.06	0
bin	-0.04	0
bin	-0.02	0
bin	0	3
bin	0.02	0
bin	0.04	0
bin	0.06	0
bin	0.08	0
bin	0.1	0
bin	0.12	0
bin	0.14	0
bin	0.16	0
bin	0.18	0
bin	0.2	0
bin	0.22	0
bin	0.24	0
bin	0.26	0
bin	0.28	0
bin	0.3	0
bin	0.32	0
bin	0.34	0
bin	0.36	0
bin	0.38	0
bin	0.4	0
bin	0.42	0
bin	0.44	0
bin	0.46	0
bin	0.48	0
bin	0.5	0
scalar SimpleDelayAttack.receiver.wlan[0].mac.queue queueLength:max 1
attr interpolationmode sample-hold
attr source "count(packetPushed) - count(packetPopped) - count(packetRemoved) - count(packetDropped)"
attr title "queue length, max"
scalar SimpleDelayAttack.receiver.wlan[0].mac.queue queueLength:timeavg 0
attr interpolationmode sample-hold
attr source "count(packetPushed) - count(packetPopped) - count(packetRemoved) - count(packetDropped)"
attr title "queue length, timeavg"
scalar SimpleDelayAttack.receiver.wlan[0].mac.queue packetPushed:count 3
attr interpolationmode none
attr title "packet pushed, count"
scalar SimpleDelayAttack.receiver.wlan[0].mac.queue packetPushed:sum(packetBytes) 104
attr interpolationmode none
attr title "packet pushed, sum(packetBytes)"
scalar SimpleDelayAttack.receiver.wlan[0].mac.queue packetDropQueueOverflow:count 0
attr interpolationmode none
attr source packetDropReasonIsQueueOverflow(packetDropped)
attr title "packet drops: queue overflow, count"
scalar SimpleDelayAttack.receiver.wlan[0].mac.queue packetDropQueueOverflow:sum(packetBytes) 0
attr interpolationmode none
attr source packetDropReasonIsQueueOverflow(packetDropped)
attr title "packet drops: queue overflow, sum(packetBytes)"
scalar SimpleDelayAttack.receiver.wlan[0].mac.queue packetRemoved:count 0
attr interpolationmode none
attr title "packets removed, count"
scalar SimpleDelayAttack.receiver.wlan[0].mac.queue packetRemoved:sum(packetBytes) 0
attr interpolationmode none
attr title "packets removed, sum(packetBytes)"
scalar SimpleDelayAttack.receiver.wlan[0].mac rcvdPkFromLl:count 306
attr interpolationmode none
attr source packetReceivedFromLower
attr title "packets received from lower layer, count"
scalar SimpleDelayAttack.receiver.wlan[0].mac rcvdPkFromLl:sum(packetBytes) 169250
attr interpolationmode none
attr source packetReceivedFromLower
attr title "packets received from lower layer, sum(packetBytes)"
scalar SimpleDelayAttack.receiver.wlan[0].mac sentDownPk:count 3
attr interpolationmode none
attr source packetSentToLower
attr title "packets sent to lower layer, count"
scalar SimpleDelayAttack.receiver.wlan[0].mac sentDownPk:sum(packetBytes) 173
attr interpolationmode none
attr source packetSentToLower
attr title "packets sent to lower layer, sum(packetBytes)"
scalar SimpleDelayAttack.receiver.wlan[0].mac rcvdPkFromHl:count 3
attr interpolationmode none
attr source packetReceivedFromUpper
attr title "packets received from higher layer, count"
scalar SimpleDelayAttack.receiver.wlan[0].mac rcvdPkFromHl:sum(packetBytes) 104
attr interpolationmode none
attr source packetReceivedFromUpper
attr title "packets received from higher layer, sum(packetBytes)"
scalar SimpleDelayAttack.receiver.wlan[0].mac passedUpPk:count 304
attr interpolationmode none
attr source packetSentToUpper
attr title "packets passed to higher layer, count"
scalar SimpleDelayAttack.receiver.wlan[0].mac passedUpPk:sum(packetBytes) 162136
attr interpolationmode none
attr source packetSentToUpper
attr title "packets passed to higher layer, sum(packetBytes)"
scalar SimpleDelayAttack.receiver.wlan[0].mac packetDropIncorrectlyReceived:count 0
attr interpolationmode none
attr source packetDropReasonIsIncorrectlyReceived(packetDropped)
attr title "packet drop: incorrectly received, count"
scalar SimpleDelayAttack.receiver.wlan[0].mac packetDropIncorrectlyReceived:sum(packetBytes) 0
attr interpolationmode none
attr source packetDropReasonIsIncorrectlyReceived(packetDropped)
attr title "packet drop: incorrectly received, sum(packetBytes)"
scalar SimpleDelayAttack.receiver.wlan[0].mac packetDropInterfaceDown:count 0
attr interpolationmode none
attr source packetDropReasonIsInterfaceDown(packetDropped)
attr title "packet drop: interface down, count"
scalar SimpleDelayAttack.receiver.wlan[0].mac packetDropInterfaceDown:sum(packetBytes) 0
attr interpolationmode none
attr source packetDropReasonIsInterfaceDown(packetDropped)
attr title "packet drop: interface down, sum(packetBytes)"
scalar SimpleDelayAttack.receiver.wlan[0].mac packetDropNotAddressedToUs:count 2
attr interpolationmode none
attr source packetDropReasonIsNotAddressedToUs(packetDropped)
attr title "packet drop: not addressed to us, count"
scalar SimpleDelayAttack.receiver.wlan[0].mac packetDropNotAddressedToUs:sum(packetBytes) 122
attr interpolationmode none
attr source packetDropReasonIsNotAddressedToUs(packetDropped)
attr title "packet drop: not addressed to us, sum(packetBytes)"
scalar SimpleDelayAttack.receiver.wlan[0].mac linkBroken:count 0
attr interpolationmode none
attr source linkBroken
attr title "link break, count"
scalar SimpleDelayAttack.receiver.wlan[0].radio radioMode:count 3
attr interpolationmode sample-hold
attr source radioModeChanged
attr title "Radio mode, count"
scalar SimpleDelayAttack.receiver.wlan[0].radio receptionState:count 613
attr interpolationmode sample-hold
attr source receptionStateChanged
attr title "Radio reception state, count"
scalar SimpleDelayAttack.receiver.wlan[0].radio transmissionState:count 7
attr interpolationmode sample-hold
attr source transmissionStateChanged
attr title "Radio transmission state, count"
statistic SimpleDelayAttack.receiver.wlan[0].radio minSnir:histogram
field count 0
field mean -nan
field stddev nan
field min nan
field max nan
field sum 0
field sqrsum 0
attr source minimumSnir(packetSentToUpper)
attr title "Min SNIR, histogram"
bin	-inf	0
bin	0	0
bin	1	0
statistic SimpleDelayAttack.receiver.wlan[0].radio packetErrorRate:histogram
field count 306
field mean 0
field stddev 0
field min 0
field max 0
field sum 0
field sqrsum 0
attr source packetErrorRate(packetSentToUpper)
attr title "Packet error rate, histogram"
bin	-inf	0
bin	-0.5	0
bin	-0.48	0
bin	-0.46	0
bin	-0.44	0
bin	-0.42	0
bin	-0.4	0
bin	-0.38	0
bin	-0.36	0
bin	-0.34	0
bin	-0.32	0
bin	-0.3	0
bin	-0.28	0
bin	-0.26	0
bin	-0.24	0
bin	-0.22	0
bin	-0.2	0
bin	-0.18	0
bin	-0.16	0
bin	-0.14	0
bin	-0.12	0
bin	-0.1	0
bin	-0.08	0
bin	-0.06	0
bin	-0.04	0
bin	-0.02	0
bin	0	306
bin	0.02	0
bin	0.04	0
bin	0.06	0
bin	0.08	0
bin	0.1	0
bin	0.12	0
bin	0.14	0
bin	0.16	0
bin	0.18	0
bin	0.2	0
bin	0.22	0
bin	0.24	0
bin	0.26	0
bin	0.28	0
bin	0.3	0
bin	0.32	0
bin	0.34	0
bin	0.36	0
bin	0.38	0
bin	0.4	0
bin	0.42	0
bin	0.44	0
bin	0.46	0
bin	0.48	0
bin	0.5	0
statistic SimpleDelayAttack.receiver.wlan[0].radio bitErrorRate:histogram
field count 306
field mean 0
field stddev 0
field min 0
field max 0
field sum 0
field sqrsum 0
attr source bitErrorRate(packetSentToUpper)
attr title "Bit error rate, histogram"
bin	-inf	0
bin	-0.5	0
bin	-0.48	0
bin	-0.46	0
bin	-0.44	0
bin	-0.42	0
bin	-0.4	0
bin	-0.38	0
bin	-0.36	0
bin	-0.34	0
bin	-0.32	0
bin	-0.3	0
bin	-0.28	0
bin	-0.26	0
bin	-0.24	0
bin	-0.22	0
bin	-0.2	0
bin	-0.18	0
bin	-0.16	0
bin	-0.14	0
bin	-0.12	0
bin	-0.1	0
bin	-0.08	0
bin	-0.06	0
bin	-0.04	0
bin	-0.02	0
bin	0	306
bin	0.02	0
bin	0.04	0
bin	0.06	0
bin	0.08	0
bin	0.1	0
bin	0.12	0
bin	0.14	0
bin	0.16	0
bin	0.18	0
bin	0.2	0
bin	0.22	0
bin	0.24	0
bin	0.26	0
bin	0.28	0
bin	0.3	0
bin	0.32	0
bin	0.34	0
bin	0.36	0
bin	0.38	0
bin	0.4	0
bin	0.42	0
bin	0.44	0
bin	0.46	0
bin	0.48	0
bin	0.5	0
statistic SimpleDelayAttack.receiver.wlan[0].radio symbolErrorRate:histogram
field count 306
field mean 0
field stddev 0
field min 0
field max 0
field sum 0
field sqrsum 0
attr source symbolErrorRate(packetSentToUpper)
attr title "Symbol error rate, histogram"
bin	-inf	0
bin	-0.5	0
bin	-0.48	0
bin	-0.46	0
bin	-0.44	0
bin	-0.42	0
bin	-0.4	0
bin	-0.38	0
bin	-0.36	0
bin	-0.34	0
bin	-0.32	0
bin	-0.3	0
bin	-0.28	0
bin	-0.26	0
bin	-0.24	0
bin	-0.22	0
bin	-0.2	0
bin	-0.18	0
bin	-0.16	0
bin	-0.14	0
bin	-0.12	0
bin	-0.1	0
bin	-0.08	0
bin	-0.06	0
bin	-0.04	0
bin	-0.02	0
bin	0	306
bin	0.02	0
bin	0.04	0
bin	0.06	0
bin	0.08	0
bin	0.1	0
bin	0.12	0
bin	0.14	0
bin	0.16	0
bin	0.18	0
bin	0.2	0
bin	0.22	0
bin	0.24	0
bin	0.26	0
bin	0.28	0
bin	0.3	0
bin	0.32	0
bin	0.34	0
bin	0.36	0
bin	0.38	0
bin	0.4	0
bin	0.42	0
bin	0.44	0
bin	0.46	0
bin	0.48	0
bin	0.5	0
scalar SimpleDelayAttack.receiver.ipv4.ip packetDropAddressResolutionFailed:count 0
attr interpolationmode none
attr source packetDropReasonIsAddressResolutionFailed(packetDropped)
attr title "packet drop: address resolution failed, count"
scalar SimpleDelayAttack.receiver.ipv4.ip packetDropAddressResolutionFailed:sum(packetBytes) 0
attr interpolationmode none
attr source packetDropReasonIsAddressResolutionFailed(packetDropped)
attr title "packet drop: address resolution failed, sum(packetBytes)"
scalar SimpleDelayAttack.receiver.ipv4.ip packetDropHopLimitReached:count 0
attr interpolationmode none
attr source packetDropReasonIsHopLimitReached(packetDropped)
attr title "packet drop: hop limit reached, count"
scalar SimpleDelayAttack.receiver.ipv4.ip packetDropHopLimitReached:sum(packetBytes) 0
attr interpolationmode none
attr source packetDropReasonIsHopLimitReached(packetDropped)
attr title "packet drop: hop limit reached, sum(packetBytes)"
scalar SimpleDelayAttack.receiver.ipv4.ip packetDropForwardingDisabled:count 0
attr interpolationmode none
attr source packetDropReasonIsForwardingDisabled(packetDropped)
attr title "packet drop: forwarding disabled, count"
scalar SimpleDelayAttack.receiver.ipv4.ip packetDropForwardingDisabled:sum(packetBytes) 0
attr interpolationmode none
attr source packetDropReasonIsForwardingDisabled(packetDropped)
attr title "packet drop: forwarding disabled, sum(packetBytes)"
scalar SimpleDelayAttack.receiver.ipv4.ip packetDropNoInterfaceFound:count 0
attr interpolationmode none
attr source packetDropReasonIsNoInterfaceFound(packetDropped)
attr title "packet drop: no interface found, count"
scalar SimpleDelayAttack.receiver.ipv4.ip packetDropNoInterfaceFound:sum(packetBytes) 0
attr interpolationmode none
attr source packetDropReasonIsNoInterfaceFound(packetDropped)
attr title "packet drop: no interface found, sum(packetBytes)"
scalar SimpleDelayAttack.receiver.ipv4.ip packetDropNoRouteFound:count 0
attr interpolationmode none
attr source packetDropReasonIsNoRouteFound(packetDropped)
attr title "packet drop: no route found, count"
scalar SimpleDelayAttack.receiver.ipv4.ip packetDropNoRouteFound:sum(packetBytes) 0
attr interpolationmode none
attr source packetDropReasonIsNoRouteFound(packetDropped)
attr title "packet drop: no route found, sum(packetBytes)"
scalar SimpleDelayAttack.receiver.ipv4.ip packetDropUndefined:count 0
attr interpolationmode none
attr source packetDropReasonIsUndefined(packetDropped)
attr title "packet drop: undefined, count"
scalar SimpleDelayAttack.receiver.ipv4.ip packetDropUndefined:sum(packetBytes) 0
attr interpolationmode none
attr source packetDropReasonIsUndefined(packetDropped)
attr title "packet drop: undefined, sum(packetBytes)"
scalar SimpleDelayAttack.receiver.ipv4.arp arpResolutionFailed:count 0
attr title "ARP failed resolutions, count"
scalar SimpleDelayAttack.receiver.ipv4.arp arpResolutionCompleted:count 3
attr title "ARP completed resolutions, count"
scalar SimpleDelayAttack.receiver.ipv4.arp arpResolutionInitiated:count 1
attr title "ARP initiated resolutions, count"
scalar SimpleDelayAttack.receiver.ipv4.arp arpReplySent:count 1
attr source arpReplySent
attr title "ARP replies sent, count"
scalar SimpleDelayAttack.receiver.ipv4.arp arpReplySent:sum(packetBytes) 28
attr source arpReplySent
attr title "ARP replies sent, sum(packetBytes)"
scalar SimpleDelayAttack.receiver.ipv4.arp arpRequestSent:count 1
attr source arpRequestSent
attr title "ARP request sent, count"
scalar SimpleDelayAttack.receiver.ipv4.arp arpRequestSent:sum(packetBytes) 28
attr source arpRequestSent
attr title "ARP request sent, sum(packetBytes)"
scalar SimpleDelayAttack.receiver.udp packetReceived:count 301
attr interpolationmode none
attr source packetReceived
attr title "packets received, count"
scalar SimpleDelayAttack.receiver.udp packetReceived:sum(packetBytes) 156032
attr interpolationmode none
attr source packetReceived
attr title "packets received, sum(packetBytes)"
scalar SimpleDelayAttack.receiver.udp packetSent:count 1
attr interpolationmode none
attr source packetSent
attr title "packets sent, count"
scalar SimpleDelayAttack.receiver.udp packetSent:sum(packetBytes) 28
attr interpolationmode none
attr source packetSent
attr title "packets sent, sum(packetBytes)"
scalar SimpleDelayAttack.receiver.udp passedUpPk:count 301
attr interpolationmode none
attr source packetSentToUpper
attr title "packets passed up, count"
scalar SimpleDelayAttack.receiver.udp droppedPkWrongPort:count 0
attr interpolationmode none
attr source packetDropReasonIsNoPortFound(packetDropped)
attr title "packets dropped (wrong port), count"
scalar SimpleDelayAttack.receiver.udp droppedPkBadChecksum:count 0
attr interpolationmode none
attr source packetDropReasonIsIncorrectlyReceived(packetDropped)
attr title "packets dropped (checksum error), count"
scalar SimpleDelayAttack.receiver.app[0] packetReceived:count 300
attr interpolationmode none
attr source packetReceived
attr title "packets received, count"
scalar SimpleDelayAttack.receiver.app[0] packetReceived:sum(packetBytes) 153600
attr interpolationmode none
attr source packetReceived
attr title "packets received, sum(packetBytes)"
statistic SimpleDelayAttack.receiver.app[0] endToEndDelay:histogram
field count 300
field mean 0.00464848149153
field stddev 0.00076320225889693
field min 0.004601167827
field max 0.017784931532
field sum 1.394544447459
field sqrsum 0.0066566748818367
attr interpolationmode none
attr source dataAge(packetReceived)
attr title "end-to-end delay, histogram"
attr unit s
bin	-inf	0
bin	0.0012	0
bin	0.0014	0
bin	0.0016	0
bin	0.0018	0
bin	0.002	0
bin	0.0022	0
bin	0.0024	0
bin	0.0026	0
bin	0.0028	0
bin	0.003	0
bin	0.0032	0
bin	0.0034	0
bin	0.0036	0
bin	0.0038	0
bin	0.004	0
bin	0.0042	0
bin	0.0044	0
bin	0.0046	298
bin	0.0048	0
bin	0.005	0
bin	0.0052	0
bin	0.0054	0
bin	0.0056	1
bin	0.0058	0
bin	0.006	0
bin	0.0062	0
bin	0.0064	0
bin	0.0066	0
bin	0.0068	0
bin	0.007	0
bin	0.0072	0
bin	0.0074	0
bin	0.0076	0
bin	0.0078	0
bin	0.008	0
bin	0.0082	0
bin	0.0084	0
bin	0.0086	0
bin	0.0088	0
bin	0.009	0
bin	0.0092	0
bin	0.0094	0
bin	0.0096	0
bin	0.0098	0
bin	0.01	0
bin	0.0102	0
bin	0.0104	0
bin	0.0106	0
bin	0.0108	0
bin	0.011	0
bin	0.0112	0
bin	0.0114	0
bin	0.0116	0
bin	0.0118	0
bin	0.012	0
bin	0.0122	0
bin	0.0124	0
bin	0.0126	0
bin	0.0128	0
bin	0.013	0
bin	0.0132	0
bin	0.0134	0
bin	0.0136	0
bin	0.0138	0
bin	0.014	0
bin	0.0142	0
bin	0.0144	0
bin	0.0146	0
bin	0.0148	0
bin	0.015	0
bin	0.0152	0
bin	0.0154	0
bin	0.0156	0
bin	0.0158	0
bin	0.016	0
bin	0.0162	0
bin	0.0164	0
bin	0.0166	0
bin	0.0168	0
bin	0.017	0
bin	0.0172	0
bin	0.0174	0
bin	0.0176	1
bin	0.0178	0
bin	0.018	0
bin	0.0182	0
bin	0.0184	0
bin	0.0186	0
bin	0.0188	0
bin	0.019	0
bin	0.0192	0
bin	0.0194	0
bin	0.0196	0
bin	0.0198	0
bin	0.02	0
bin	0.0202	0
bin	0.0204	0
bin	0.0206	0
bin	0.0208	0
bin	0.021	0
bin	0.0212	0
scalar SimpleDelayAttack.Host.lo[0].lo rcvdPkFromHl:count 0
attr interpolationmode none
attr source packetReceivedFromUpper
attr title "packets received from higher layer, count"
scalar SimpleDelayAttack.Host.lo[0].lo rcvdPkFromHl:sum(packetBytes) 0
attr interpolationmode none
attr source packetReceivedFromUpper
attr title "packets received from higher layer, sum(packetBytes)"
scalar SimpleDelayAttack.Host.lo[0].lo passedUpPk:count 0
attr interpolationmode none
attr source packetSentToUpper
attr title "packets passed to higher layer, count"
scalar SimpleDelayAttack.Host.lo[0].lo passedUpPk:sum(packetBytes) 0
attr interpolationmode none
attr source packetSentToUpper
attr title "packets passed to higher layer, sum(packetBytes)"
scalar SimpleDelayAttack.Host.wlan[0].mac.queue packetPopped:count 306
attr interpolationmode none
attr title "packet popped, count"
scalar SimpleDelayAttack.Host.wlan[0].mac.queue packetPopped:sum(packetBytes) 162212
attr interpolationmode none
attr title "packet popped, sum(packetBytes)"
statistic SimpleDelayAttack.Host.wlan[0].mac.queue queueingTime:histogram
field count 306
field mean 0
field stddev 0
field min 0
field max 0
field sum 0
field sqrsum 0
attr interpolationmode none
attr source queueingTime(packetPopped)
attr title "queueing times, histogram"
attr unit s
bin	-inf	0
bin	-0.5	0
bin	-0.48	0
bin	-0.46	0
bin	-0.44	0
bin	-0.42	0
bin	-0.4	0
bin	-0.38	0
bin	-0.36	0
bin	-0.34	0
bin	-0.32	0
bin	-0.3	0
bin	-0.28	0
bin	-0.26	0
bin	-0.24	0
bin	-0.22	0
bin	-0.2	0
bin	-0.18	0
bin	-0.16	0
bin	-0.14	0
bin	-0.12	0
bin	-0.1	0
bin	-0.08	0
bin	-0.06	0
bin	-0.04	0
bin	-0.02	0
bin	0	306
bin	0.02	0
bin	0.04	0
bin	0.06	0
bin	0.08	0
bin	0.1	0
bin	0.12	0
bin	0.14	0
bin	0.16	0
bin	0.18	0
bin	0.2	0
bin	0.22	0
bin	0.24	0
bin	0.26	0
bin	0.28	0
bin	0.3	0
bin	0.32	0
bin	0.34	0
bin	0.36	0
bin	0.38	0
bin	0.4	0
bin	0.42	0
bin	0.44	0
bin	0.46	0
bin	0.48	0
bin	0.5	0
scalar SimpleDelayAttack.Host.wlan[0].mac.queue queueLength:max 1
attr interpolationmode sample-hold
attr source "count(packetPushed) - count(packetPopped) - count(packetRemoved) - count(packetDropped)"
attr title "queue length, max"
scalar SimpleDelayAttack.Host.wlan[0].mac.queue queueLength:timeavg 0
attr interpolationmode sample-hold
attr source "count(packetPushed) - count(packetPopped) - count(packetRemoved) - count(packetDropped)"
attr title "queue length, timeavg"
scalar SimpleDelayAttack.Host.wlan[0].mac.queue packetPushed:count 306
attr interpolationmode none
attr title "packet pushed, count"
scalar SimpleDelayAttack.Host.wlan[0].mac.queue packetPushed:sum(packetBytes) 162212
attr interpolationmode none
attr title "packet pushed, sum(packetBytes)"
scalar SimpleDelayAttack.Host.wlan[0].mac.queue packetDropQueueOverflow:count 0
attr interpolationmode none
attr source packetDropReasonIsQueueOverflow(packetDropped)
attr title "packet drops: queue overflow, count"
scalar SimpleDelayAttack.Host.wlan[0].mac.queue packetDropQueueOverflow:sum(packetBytes) 0
attr interpolationmode none
attr source packetDropReasonIsQueueOverflow(packetDropped)
attr title "packet drops: queue overflow, sum(packetBytes)"
scalar SimpleDelayAttack.Host.wlan[0].mac.queue packetRemoved:count 0
attr interpolationmode none
attr title "packets removed, count"
scalar SimpleDelayAttack.Host.wlan[0].mac.queue packetRemoved:sum(packetBytes) 0
attr interpolationmode none
attr title "packets removed, sum(packetBytes)"
scalar SimpleDelayAttack.Host.wlan[0].mac rcvdPkFromLl:count 306
attr interpolationmode none
attr source packetReceivedFromLower
attr title "packets received from lower layer, count"
scalar SimpleDelayAttack.Host.wlan[0].mac rcvdPkFromLl:sum(packetBytes) 169250
attr interpolationmode none
attr source packetReceivedFromLower
attr title "packets received from lower layer, sum(packetBytes)"
scalar SimpleDelayAttack.Host.wlan[0].mac sentDownPk:count 306
attr interpolationmode none
attr source packetSentToLower
attr title "packets sent to lower layer, count"
scalar SimpleDelayAttack.Host.wlan[0].mac sentDownPk:sum(packetBytes) 169250
attr interpolationmode none
attr source packetSentToLower
attr title "packets sent to lower layer, sum(packetBytes)"
scalar SimpleDelayAttack.Host.wlan[0].mac rcvdPkFromHl:count 306
attr interpolationmode none
attr source packetReceivedFromUpper
attr title "packets received from higher layer, count"
scalar SimpleDelayAttack.Host.wlan[0].mac rcvdPkFromHl:sum(packetBytes) 162212
attr interpolationmode none
attr source packetReceivedFromUpper
attr title "packets received from higher layer, sum(packetBytes)"
scalar SimpleDelayAttack.Host.wlan[0].mac passedUpPk:count 306
attr interpolationmode none
attr source packetSentToUpper
attr title "packets passed to higher layer, count"
scalar SimpleDelayAttack.Host.wlan[0].mac passedUpPk:sum(packetBytes) 162212
attr interpolationmode none
attr source packetSentToUpper
attr title "packets passed to higher layer, sum(packetBytes)"
scalar SimpleDelayAttack.Host.wlan[0].mac packetDropIncorrectlyReceived:count 0
attr interpolationmode none
attr source packetDropReasonIsIncorrectlyReceived(packetDropped)
attr title "packet drop: incorrectly received, count"
scalar SimpleDelayAttack.Host.wlan[0].mac packetDropIncorrectlyReceived:sum(packetBytes) 0
attr interpolationmode none
attr source packetDropReasonIsIncorrectlyReceived(packetDropped)
attr title "packet drop: incorrectly received, sum(packetBytes)"
scalar SimpleDelayAttack.Host.wlan[0].mac packetDropInterfaceDown:count 0
attr interpolationmode none
attr source packetDropReasonIsInterfaceDown(packetDropped)
attr title "packet drop: interface down, count"
scalar SimpleDelayAttack.Host.wlan[0].mac packetDropInterfaceDown:sum(packetBytes) 0
attr interpolationmode none
attr source packetDropReasonIsInterfaceDown(packetDropped)
attr title "packet drop: interface down, sum(packetBytes)"
scalar SimpleDelayAttack.Host.wlan[0].mac packetDropNotAddressedToUs:count 0
attr interpolationmode none
attr source packetDropReasonIsNotAddressedToUs(packetDropped)
attr title "packet drop: not addressed to us, count"
scalar SimpleDelayAttack.Host.wlan[0].mac packetDropNotAddressedToUs:sum(packetBytes) 0
attr interpolationmode none
attr source packetDropReasonIsNotAddressedToUs(packetDropped)
attr title "packet drop: not addressed to us, sum(packetBytes)"
scalar SimpleDelayAttack.Host.wlan[0].mac linkBroken:count 0
attr interpolationmode none
attr source linkBroken
attr title "link break, count"
scalar SimpleDelayAttack.Host.wlan[0].radio radioMode:count 3
attr interpolationmode sample-hold
attr source radioModeChanged
attr title "Radio mode, count"
scalar SimpleDelayAttack.Host.wlan[0].radio receptionState:count 613
attr interpolationmode sample-hold
attr source receptionStateChanged
attr title "Radio reception state, count"
scalar SimpleDelayAttack.Host.wlan[0].radio transmissionState:count 613
attr interpolationmode sample-hold
attr source transmissionStateChanged
attr title "Radio transmission state, count"
statistic SimpleDelayAttack.Host.wlan[0].radio minSnir:histogram
field count 0
field mean -nan
field stddev nan
field min nan
field max nan
field sum 0
field sqrsum 0
attr source minimumSnir(packetSentToUpper)
attr title "Min SNIR, histogram"
bin	-inf	0
bin	0	0
bin	1	0
statistic SimpleDelayAttack.Host.wlan[0].radio packetErrorRate:histogram
field count 306
field mean 0
field stddev 0
field min 0
field max 0
field sum 0
field sqrsum 0
attr source packetErrorRate(packetSentToUpper)
attr title "Packet error rate, histogram"
bin	-inf	0
bin	-0.5	0
bin	-0.48	0
bin	-0.46	0
bin	-0.44	0
bin	-0.42	0
bin	-0.4	0
bin	-0.38	0
bin	-0.36	0
bin	-0.34	0
bin	-0.32	0
bin	-0.3	0
bin	-0.28	0
bin	-0.26	0
bin	-0.24	0
bin	-0.22	0
bin	-0.2	0
bin	-0.18	0
bin	-0.16	0
bin	-0.14	0
bin	-0.12	0
bin	-0.1	0
bin	-0.08	0
bin	-0.06	0
bin	-0.04	0
bin	-0.02	0
bin	0	306
bin	0.02	0
bin	0.04	0
bin	0.06	0
bin	0.08	0
bin	0.1	0
bin	0.12	0
bin	0.14	0
bin	0.16	0
bin	0.18	0
bin	0.2	0
bin	0.22	0
bin	0.24	0
bin	0.26	0
bin	0.28	0
bin	0.3	0
bin	0.32	0
bin	0.34	0
bin	0.36	0
bin	0.38	0
bin	0.4	0
bin	0.42	0
bin	0.44	0
bin	0.46	0
bin	0.48	0
bin	0.5	0
statistic SimpleDelayAttack.Host.wlan[0].radio bitErrorRate:histogram
field count 306
field mean 0
field stddev 0
field min 0
field max 0
field sum 0
field sqrsum 0
attr source bitErrorRate(packetSentToUpper)
attr title "Bit error rate, histogram"
bin	-inf	0
bin	-0.5	0
bin	-0.48	0
bin	-0.46	0
bin	-0.44	0
bin	-0.42	0
bin	-0.4	0
bin	-0.38	0
bin	-0.36	0
bin	-0.34	0
bin	-0.32	0
bin	-0.3	0
bin	-0.28	0
bin	-0.26	0
bin	-0.24	0
bin	-0.22	0
bin	-0.2	0
bin	-0.18	0
bin	-0.16	0
bin	-0.14	0
bin	-0.12	0
bin	-0.1	0
bin	-0.08	0
bin	-0.06	0
bin	-0.04	0
bin	-0.02	0
bin	0	306
bin	0.02	0
bin	0.04	0
bin	0.06	0
bin	0.08	0
bin	0.1	0
bin	0.12	0
bin	0.14	0
bin	0.16	0
bin	0.18	0
bin	0.2	0
bin	0.22	0
bin	0.24	0
bin	0.26	0
bin	0.28	0
bin	0.3	0
bin	0.32	0
bin	0.34	0
bin	0.36	0
bin	0.38	0
bin	0.4	0
bin	0.42	0
bin	0.44	0
bin	0.46	0
bin	0.48	0
bin	0.5	0
statistic SimpleDelayAttack.Host.wlan[0].radio symbolErrorRate:histogram
field count 306
field mean 0
field stddev 0
field min 0
field max 0
field sum 0
field sqrsum 0
attr source symbolErrorRate(packetSentToUpper)
attr title "Symbol error rate, histogram"
bin	-inf	0
bin	-0.5	0
bin	-0.48	0
bin	-0.46	0
bin	-0.44	0
bin	-0.42	0
bin	-0.4	0
bin	-0.38	0
bin	-0.36	0
bin	-0.34	0
bin	-0.32	0
bin	-0.3	0
bin	-0.28	0
bin	-0.26	0
bin	-0.24	0
bin	-0.22	0
bin	-0.2	0
bin	-0.18	0
bin	-0.16	0
bin	-0.14	0
bin	-0.12	0
bin	-0.1	0
bin	-0.08	0
bin	-0.06	0
bin	-0.04	0
bin	-0.02	0
bin	0	306
bin	0.02	0
bin	0.04	0
bin	0.06	0
bin	0.08	0
bin	0.1	0
bin	0.12	0
bin	0.14	0
bin	0.16	0
bin	0.18	0
bin	0.2	0
bin	0.22	0
bin	0.24	0
bin	0.26	0
bin	0.28	0
bin	0.3	0
bin	0.32	0
bin	0.34	0
bin	0.36	0
bin	0.38	0
bin	0.4	0
bin	0.42	0
bin	0.44	0
bin	0.46	0
bin	0.48	0
bin	0.5	0
scalar SimpleDelayAttack.Host.ipv4.ip packetDropAddressResolutionFailed:count 0
attr interpolationmode none
attr source packetDropReasonIsAddressResolutionFailed(packetDropped)
attr title "packet drop: address resolution failed, count"
scalar SimpleDelayAttack.Host.ipv4.ip packetDropAddressResolutionFailed:sum(packetBytes) 0
attr interpolationmode none
attr source packetDropReasonIsAddressResolutionFailed(packetDropped)
attr title "packet drop: address resolution failed, sum(packetBytes)"
scalar SimpleDelayAttack.Host.ipv4.ip packetDropHopLimitReached:count 0
attr interpolationmode none
attr source packetDropReasonIsHopLimitReached(packetDropped)
attr title "packet drop: hop limit reached, count"
scalar SimpleDelayAttack.Host.ipv4.ip packetDropHopLimitReached:sum(packetBytes) 0
attr interpolationmode none
attr source packetDropReasonIsHopLimitReached(packetDropped)
attr title "packet drop: hop limit reached, sum(packetBytes)"
scalar SimpleDelayAttack.Host.ipv4.ip packetDropForwardingDisabled:count 0
attr interpolationmode none
attr source packetDropReasonIsForwardingDisabled(packetDropped)
attr title "packet drop: forwarding disabled, count"
scalar SimpleDelayAttack.Host.ipv4.ip packetDropForwardingDisabled:sum(packetBytes) 0
attr interpolationmode none
attr source packetDropReasonIsForwardingDisabled(packetDropped)
attr title "packet drop: forwarding disabled, sum(packetBytes)"
scalar SimpleDelayAttack.Host.ipv4.ip packetDropNoInterfaceFound:count 0
attr interpolationmode none
attr source packetDropReasonIsNoInterfaceFound(packetDropped)
attr title "packet drop: no interface found, count"
scalar SimpleDelayAttack.Host.ipv4.ip packetDropNoInterfaceFound:sum(packetBytes) 0
attr interpolationmode none
attr source packetDropReasonIsNoInterfaceFound(packetDropped)
attr title "packet drop: no interface found, sum(packetBytes)"
scalar SimpleDelayAttack.Host.ipv4.ip packetDropNoRouteFound:count 0
attr interpolationmode none
attr source packetDropReasonIsNoRouteFound(packetDropped)
attr title "packet drop: no route found, count"
scalar SimpleDelayAttack.Host.ipv4.ip packetDropNoRouteFound:sum(packetBytes) 0
attr interpolationmode none
attr source packetDropReasonIsNoRouteFound(packetDropped)
attr title "packet drop: no route found, sum(packetBytes)"
scalar SimpleDelayAttack.Host.ipv4.ip packetDropUndefined:count 0
attr interpolationmode none
attr source packetDropReasonIsUndefined(packetDropped)
attr title "packet drop: undefined, count"
scalar SimpleDelayAttack.Host.ipv4.ip packetDropUndefined:sum(packetBytes) 0
attr interpolationmode none
attr source packetDropReasonIsUndefined(packetDropped)
attr title "packet drop: undefined, sum(packetBytes)"
scalar SimpleDelayAttack.Host.ipv4.arp arpResolutionFailed:count 0
attr title "ARP failed resolutions, count"
scalar SimpleDelayAttack.Host.ipv4.arp arpResolutionCompleted:count 4
attr title "ARP completed resolutions, count"
scalar SimpleDelayAttack.Host.ipv4.arp arpResolutionInitiated:count 2
attr title "ARP initiated resolutions, count"
scalar SimpleDelayAttack.Host.ipv4.arp arpReplySent:count 2
attr source arpReplySent
attr title "ARP replies sent, count"
scalar SimpleDelayAttack.Host.ipv4.arp arpReplySent:sum(packetBytes) 56
attr source arpReplySent
attr title "ARP replies sent, sum(packetBytes)"
scalar SimpleDelayAttack.Host.ipv4.arp arpRequestSent:count 2
attr source arpRequestSent
attr title "ARP request sent, count"
scalar SimpleDelayAttack.Host.ipv4.arp arpRequestSent:sum(packetBytes) 56
attr source arpRequestSent
attr title "ARP request sent, sum(packetBytes)"
scalar SimpleDelayAttack.Host.udp packetReceived:count 2
attr interpolationmode none
attr source packetReceived
attr title "packets received, count"
scalar SimpleDelayAttack.Host.udp packetReceived:sum(packetBytes) 60
attr interpolationmode none
attr source packetReceived
attr title "packets received, sum(packetBytes)"
scalar SimpleDelayAttack.Host.udp packetSent:count 2
attr interpolationmode none
attr source packetSent
attr title "packets sent, count"
scalar SimpleDelayAttack.Host.udp packetSent:sum(packetBytes) 60
attr interpolationmode none
attr source packetSent
attr title "packets sent, sum(packetBytes)"
scalar SimpleDelayAttack.Host.udp passedUpPk:count 2
attr interpolationmode none
attr source packetSentToUpper
attr title "packets passed up, count"
scalar SimpleDelayAttack.Host.udp droppedPkWrongPort:count 0
attr interpolationmode none
attr source packetDropReasonIsNoPortFound(packetDropped)
attr title "packets dropped (wrong port), count"
scalar SimpleDelayAttack.Host.udp droppedPkBadChecksum:count 0
attr interpolationmode none
attr source packetDropReasonIsIncorrectlyReceived(packetDropped)
attr title "packets dropped (checksum error), count"

