version 2
run General-0-20210711-18:17:05-2521
attr configname General
attr datetime 20210711-18:17:05
attr experiment General
attr inifile simpledropping.ini
attr iterationvars ""
attr iterationvarsf ""
attr measurement ""
attr network ntuattack.simulations.dropping.SimpleDropongAttack
attr processid 2521
attr repetition 0
attr replication #0
attr resultdir results
attr runnumber 0
attr seedset 0
param **.wlan[*].typename "\"AckingWirelessInterface\""
param **.wlan[*].bitrate 2Mbps
param **.wlan[*].mac.headerLength 23B
param **.wlan[*].radio.typename "\"UnitDiskRadio\""
param **.wlan[*].radio.transmitter.headerLength 96b
param **.wlan[*].radio.transmitter.communicationRange 200m
param **.wlan[*].radio.transmitter.interferenceRange 0m
param **.wlan[*].radio.transmitter.detectionRange 0m
param **.wlan[*].radio.receiver.ignoreInterference true
param **.hasStatus true
param *.visualizer.sceneVisualizer.descriptionFigure "\"title\""
param *.visualizer.mediumVisualizer.displaySignals true
param *.visualizer.physicalLinkVisualizer.displayLinks true
param *.visualizer.dataLinkVisualizer.displayLinks true
param *.visualizer.networkRouteVisualizer.displayRoutes true
param *.sender.numApps 1
param *.sender.app[0].typename "\"UdpBasicApp\""
param *.sender.app[0].destAddresses "\"receiver\""
param *.sender.app[0].destPort 1000
param *.sender.app[0].sendInterval "0.5s + uniform(-0.001s,0.001s)"
param *.sender.app[0].startTime 0s
param *.sender.app[0].messageLength 512Byte
param *.sender.app[0].packetName "\"UDPdata\""
param *.receiver.numApps 1
param *.receiver.app[0].typename "\"UdpSink\""
param *.receiver.app[0].localPort 1000

vector 0 SimpleDropongAttack.sender.wlan[0].radio radioMode:vector ETV
attr interpolationmode sample-hold
attr source radioModeChanged
attr title "Radio mode, vector"
vector 1 SimpleDropongAttack.receiver.wlan[0].radio radioMode:vector ETV
attr interpolationmode sample-hold
attr source radioModeChanged
attr title "Radio mode, vector"
vector 2 SimpleDropongAttack.droper.wlan[0].radio radioMode:vector ETV
attr interpolationmode sample-hold
attr source radioModeChanged
attr title "Radio mode, vector"
vector 3 SimpleDropongAttack.sender.wlan[0].radio receptionState:vector ETV
attr interpolationmode sample-hold
attr source receptionStateChanged
attr title "Radio reception state, vector"
vector 4 SimpleDropongAttack.sender.wlan[0].radio transmissionState:vector ETV
attr interpolationmode sample-hold
attr source transmissionStateChanged
attr title "Radio transmission state, vector"
vector 5 SimpleDropongAttack.receiver.wlan[0].radio receptionState:vector ETV
attr interpolationmode sample-hold
attr source receptionStateChanged
attr title "Radio reception state, vector"
vector 6 SimpleDropongAttack.receiver.wlan[0].radio transmissionState:vector ETV
attr interpolationmode sample-hold
attr source transmissionStateChanged
attr title "Radio transmission state, vector"
vector 7 SimpleDropongAttack.droper.wlan[0].radio receptionState:vector ETV
attr interpolationmode sample-hold
attr source receptionStateChanged
attr title "Radio reception state, vector"
vector 8 SimpleDropongAttack.droper.wlan[0].radio transmissionState:vector ETV
attr interpolationmode sample-hold
attr source transmissionStateChanged
attr title "Radio transmission state, vector"
vector 9 SimpleDropongAttack.sender.app[0] packetSent:vector(packetBytes) ETV
attr interpolationmode none
attr source packetSent
attr title "packets sent, vector(packetBytes)"
0	0	0	0
0	0	0	0
0	0	0	4
1	0	0	0
1	0	0	0
1	0	0	4
2	0	0	0
2	0	0	0
2	0	0	4
3	0	0	1
4	0	0	1
5	0	0	1
6	0	0	1
7	0	0	1
8	0	0	1
9	7	0	512
vector 10 SimpleDropongAttack.sender.udp packetSent:vector(packetBytes) ETV
attr interpolationmode none
attr source packetSent
attr title "packets sent, vector(packetBytes)"
vector 11 SimpleDropongAttack.sender.wlan[0].mac rcvdPkFromHl:vector(packetBytes) ETV
attr interpolationmode none
attr source packetReceivedFromUpper
attr title "packets received from higher layer, vector(packetBytes)"
vector 12 SimpleDropongAttack.sender.wlan[0].mac.queue packetPushed:vector(packetBytes) ETV
attr interpolationmode none
attr title "packet pushed, vector(packetBytes)"
vector 13 SimpleDropongAttack.sender.wlan[0].mac.queue queueLength:vector ETV
attr interpolationmode sample-hold
attr source "count(packetPushed) - count(packetPopped) - count(packetRemoved) - count(packetDropped)"
attr title "queue length, vector"
vector 14 SimpleDropongAttack.sender.wlan[0].mac.queue packetPopped:vector(packetBytes) ETV
attr interpolationmode none
attr title "packet popped, vector(packetBytes)"
vector 15 SimpleDropongAttack.sender.wlan[0].mac.queue queueingTime:vector ETV
attr interpolationmode none
attr source queueingTime(packetPopped)
attr title "queueing times, vector"
attr unit s
vector 16 SimpleDropongAttack.sender.wlan[0].mac sentDownPk:vector(packetBytes) ETV
attr interpolationmode none
attr source packetSentToLower
attr title "packets sent to lower layer, vector(packetBytes)"
vector 17 SimpleDropongAttack.droper.wlan[0].mac rcvdPkFromLl:vector(packetBytes) ETV
attr interpolationmode none
attr source packetReceivedFromLower
attr title "packets received from lower layer, vector(packetBytes)"
vector 18 SimpleDropongAttack.droper.wlan[0].mac passedUpPk:vector(packetBytes) ETV
attr interpolationmode none
attr source packetSentToUpper
attr title "packets passed to higher layer, vector(packetBytes)"
vector 19 SimpleDropongAttack.droper.udp packetReceived:vector(packetBytes) ETV
attr interpolationmode none
attr source packetReceived
attr title "packets received, vector(packetBytes)"
vector 20 SimpleDropongAttack.droper.udp passedUpPk:vector(count) ETV
attr interpolationmode none
attr source packetSentToUpper
attr title "packets passed up, vector(count)"
vector 21 SimpleDropongAttack.droper.udp packetSent:vector(packetBytes) ETV
attr interpolationmode none
attr source packetSent
attr title "packets sent, vector(packetBytes)"
vector 22 SimpleDropongAttack.droper.wlan[0].mac rcvdPkFromHl:vector(packetBytes) ETV
attr interpolationmode none
attr source packetReceivedFromUpper
attr title "packets received from higher layer, vector(packetBytes)"
vector 23 SimpleDropongAttack.droper.wlan[0].mac.queue packetPushed:vector(packetBytes) ETV
attr interpolationmode none
attr title "packet pushed, vector(packetBytes)"
vector 24 SimpleDropongAttack.droper.wlan[0].mac.queue queueLength:vector ETV
attr interpolationmode sample-hold
attr source "count(packetPushed) - count(packetPopped) - count(packetRemoved) - count(packetDropped)"
attr title "queue length, vector"
vector 25 SimpleDropongAttack.droper.wlan[0].mac.queue packetPopped:vector(packetBytes) ETV
attr interpolationmode none
attr title "packet popped, vector(packetBytes)"
vector 26 SimpleDropongAttack.droper.wlan[0].mac.queue queueingTime:vector ETV
attr interpolationmode none
attr source queueingTime(packetPopped)
attr title "queueing times, vector"
attr unit s
vector 27 SimpleDropongAttack.droper.wlan[0].mac sentDownPk:vector(packetBytes) ETV
attr interpolationmode none
attr source packetSentToLower
attr title "packets sent to lower layer, vector(packetBytes)"
vector 28 SimpleDropongAttack.sender.wlan[0].mac rcvdPkFromLl:vector(packetBytes) ETV
attr interpolationmode none
attr source packetReceivedFromLower
attr title "packets received from lower layer, vector(packetBytes)"
vector 29 SimpleDropongAttack.sender.wlan[0].mac passedUpPk:vector(packetBytes) ETV
attr interpolationmode none
attr source packetSentToUpper
attr title "packets passed to higher layer, vector(packetBytes)"
vector 30 SimpleDropongAttack.sender.udp packetReceived:vector(packetBytes) ETV
attr interpolationmode none
attr source packetReceived
attr title "packets received, vector(packetBytes)"
vector 31 SimpleDropongAttack.sender.udp passedUpPk:vector(count) ETV
attr interpolationmode none
attr source packetSentToUpper
attr title "packets passed up, vector(count)"
vector 32 SimpleDropongAttack.receiver.wlan[0].mac rcvdPkFromLl:vector(packetBytes) ETV
attr interpolationmode none
attr source packetReceivedFromLower
attr title "packets received from lower layer, vector(packetBytes)"
vector 33 SimpleDropongAttack.receiver.wlan[0].mac passedUpPk:vector(packetBytes) ETV
attr interpolationmode none
attr source packetSentToUpper
attr title "packets passed to higher layer, vector(packetBytes)"
vector 34 SimpleDropongAttack.receiver.udp packetReceived:vector(packetBytes) ETV
attr interpolationmode none
attr source packetReceived
attr title "packets received, vector(packetBytes)"
vector 35 SimpleDropongAttack.receiver.udp passedUpPk:vector(count) ETV
attr interpolationmode none
attr source packetSentToUpper
attr title "packets passed up, vector(count)"
vector 36 SimpleDropongAttack.receiver.udp packetSent:vector(packetBytes) ETV
attr interpolationmode none
attr source packetSent
attr title "packets sent, vector(packetBytes)"
vector 37 SimpleDropongAttack.receiver.ipv4.arp arpRequestSent:vector(packetBytes) ETV
attr source arpRequestSent
attr title "ARP request sent, vector(packetBytes)"
vector 38 SimpleDropongAttack.receiver.wlan[0].mac rcvdPkFromHl:vector(packetBytes) ETV
attr interpolationmode none
attr source packetReceivedFromUpper
attr title "packets received from higher layer, vector(packetBytes)"
vector 39 SimpleDropongAttack.receiver.wlan[0].mac.queue packetPushed:vector(packetBytes) ETV
attr interpolationmode none
attr title "packet pushed, vector(packetBytes)"
vector 40 SimpleDropongAttack.receiver.wlan[0].mac.queue queueLength:vector ETV
attr interpolationmode sample-hold
attr source "count(packetPushed) - count(packetPopped) - count(packetRemoved) - count(packetDropped)"
attr title "queue length, vector"
vector 41 SimpleDropongAttack.receiver.wlan[0].mac.queue packetPopped:vector(packetBytes) ETV
attr interpolationmode none
attr title "packet popped, vector(packetBytes)"
vector 42 SimpleDropongAttack.receiver.wlan[0].mac.queue queueingTime:vector ETV
attr interpolationmode none
attr source queueingTime(packetPopped)
attr title "queueing times, vector"
attr unit s
vector 43 SimpleDropongAttack.receiver.wlan[0].mac sentDownPk:vector(packetBytes) ETV
attr interpolationmode none
attr source packetSentToLower
attr title "packets sent to lower layer, vector(packetBytes)"
vector 44 SimpleDropongAttack.droper.ipv4.arp arpReplySent:vector(packetBytes) ETV
attr source arpReplySent
attr title "ARP replies sent, vector(packetBytes)"
vector 45 SimpleDropongAttack.sender.wlan[0].mac packetDropNotAddressedToUs:vector(packetBytes) ETV
attr interpolationmode none
attr source packetDropReasonIsNotAddressedToUs(packetDropped)
attr title "packet drop: not addressed to us, vector(packetBytes)"
vector 46 SimpleDropongAttack.droper.ipv4.arp arpRequestSent:vector(packetBytes) ETV
attr source arpRequestSent
attr title "ARP request sent, vector(packetBytes)"
vector 47 SimpleDropongAttack.sender.ipv4.arp arpReplySent:vector(packetBytes) ETV
attr source arpReplySent
attr title "ARP replies sent, vector(packetBytes)"
vector 48 SimpleDropongAttack.receiver.wlan[0].mac packetDropNotAddressedToUs:vector(packetBytes) ETV
attr interpolationmode none
attr source packetDropReasonIsNotAddressedToUs(packetDropped)
attr title "packet drop: not addressed to us, vector(packetBytes)"
vector 49 SimpleDropongAttack.receiver.app[0] packetReceived:vector(packetBytes) ETV
attr interpolationmode none
attr source packetReceived
attr title "packets received, vector(packetBytes)"
vector 50 SimpleDropongAttack.receiver.app[0] endToEndDelay:vector ETV
attr interpolationmode none
attr source dataAge(packetReceived)
attr title "end-to-end delay, vector"
attr unit s
vector 51 SimpleDropongAttack.receiver.app[0] rcvdPkSeqNo:vector ETV
attr interpolationmode none
attr source appPkSeqNo(packetReceived)
attr title "received packet sequence number, vector"
vector 52 SimpleDropongAttack.receiver.app[0] throughput:vector ETV
attr source throughput(packetReceived)
attr title "throughput, vector"
attr unit bps
3	33	0.008146400145	3
3	36	0.008494400145	1
3	59	0.008747611199	3
3	62	0.008999611199	1
3	83	0.012346639105	3
3	86	0.012598639105	1
3	103	0.012851763705	3
3	106	0.013183763705	1
3	125	0.015484888305	3
3	128	0.017784888305	1
3	158	0.502486813833	3
3	161	0.504786813833	1
3	187	1.002576580188	3
3	190	1.004876580188	1
3	213	1.502423889782	3
3	216	1.504723889782	1
3	242	2.002715678012	3
3	245	2.005015678012	1
3	268	2.502590852432	3
3	271	2.504890852432	1
3	297	3.003374398436	3
3	300	3.005674398436	1
3	325	3.504301723964	3
3	328	3.506601723964	1
3	354	4.004068607007	3
3	357	4.006368607007	1
4	18	0.003575946825	2
4	21	0.003923946825	1
4	90	0.012598639105	2
4	96	0.012850639105	1
4	112	0.013183763705	2
4	118	0.015483763705	1
4	148	0.500185689233	2
4	151	0.502485689233	1
4	177	1.000275455588	2
4	180	1.002575455588	1
4	203	1.500122765182	2
4	206	1.502422765182	1
4	232	2.000414553412	2
4	235	2.002714553412	1
4	258	2.500289727832	2
4	261	2.502589727832	1
4	287	3.001073273836	2
4	290	3.003373273836	1
4	315	3.502000599364	2
4	318	3.504300599364	1
4	344	4.001767482407	2
4	347	4.004067482407	1
5	34	0.008146443372	3
5	41	0.008494443372	1
5	60	0.008747654426	3
5	64	0.008999654426	1
5	84	0.012346682332	3
5	91	0.012598682332	1
5	104	0.012851806932	3
5	113	0.013183806932	1
5	126	0.015484931532	3
5	130	0.017784931532	1
5	159	0.50248685706	3
5	163	0.50478685706	1
5	188	1.002576623415	3
5	192	1.004876623415	1
5	214	1.502423933009	3
5	218	1.504723933009	1
5	243	2.002715721239	3
5	247	2.005015721239	1
5	269	2.502590895659	3
5	273	2.504890895659	1
5	298	3.003374441663	3
5	302	3.005674441663	1
5	326	3.504301767191	3
5	330	3.506601767191	1
5	355	4.004068650234	3
5	359	4.006368650234	1
6	49	0.008494443372	2
6	52	0.008746443372	1
6	68	0.008999654426	2
6	71	0.009331654426	1
7	19	0.003576509125	3
7	22	0.003924509125	1
7	50	0.008495048899	3
7	53	0.008747048899	1
7	69	0.009000259953	3
7	72	0.009332259953	1
7	94	0.012599201405	3
7	97	0.012851201405	1
7	115	0.013184326005	3
7	119	0.015484326005	1
7	149	0.500186251533	3
7	152	0.502486251533	1
7	178	1.000276017888	3
7	181	1.002576017888	1
7	204	1.500123327482	3
7	207	1.502423327482	1
7	233	2.000415115712	3
7	236	2.002715115712	1
7	259	2.500290290132	3
7	262	2.502590290132	1
7	288	3.001073836136	3
7	291	3.003373836136	1
7	316	3.502001161664	3
7	319	3.504301161664	1
7	345	4.001768044707	3
7	348	4.004068044707	1
8	32	0.008145837845	2
8	35	0.008493837845	1
8	57	0.008747048899	2
8	61	0.008999048899	1
8	82	0.012346076805	2
8	85	0.012598076805	1
8	101	0.012851201405	2
8	105	0.013183201405	1
8	123	0.015484326005	2
8	127	0.017784326005	1
8	156	0.502486251533	2
8	160	0.504786251533	1
8	185	1.002576017888	2
8	189	1.004876017888	1
8	211	1.502423327482	2
8	215	1.504723327482	1
8	240	2.002715115712	2
8	244	2.005015115712	1
8	266	2.502590290132	2
8	270	2.504890290132	1
8	295	3.003373836136	2
8	299	3.005673836136	1
8	323	3.504301161664	2
8	327	3.506601161664	1
8	352	4.004068044707	2
8	356	4.006368044707	1
9	144	0.500185689233	512
9	173	1.000275455588	512
9	199	1.500122765182	512
9	228	2.000414553412	512
9	254	2.500289727832	512
9	283	3.001073273836	512
9	311	3.502000599364	512
9	340	4.001767482407	512
10	10	0	520
10	15	0.003575946825	32
10	145	0.500185689233	520
10	174	1.000275455588	520
10	200	1.500122765182	520
10	229	2.000414553412	520
10	255	2.500289727832	520
10	284	3.001073273836	520
10	312	3.502000599364	520
10	341	4.001767482407	520
11	17	0.003575946825	52
11	89	0.012598639105	28
11	111	0.013183763705	540
11	147	0.500185689233	540
11	176	1.000275455588	540
11	202	1.500122765182	540
11	231	2.000414553412	540
11	257	2.500289727832	540
11	286	3.001073273836	540
11	314	3.502000599364	540
11	343	4.001767482407	540
12	17	0.003575946825	52
12	89	0.012598639105	28
12	111	0.013183763705	540
12	147	0.500185689233	540
12	176	1.000275455588	540
12	202	1.500122765182	540
12	231	2.000414553412	540
12	257	2.500289727832	540
12	286	3.001073273836	540
12	314	3.502000599364	540
12	343	4.001767482407	540
13	17	0.003575946825	1
13	17	0.003575946825	0
13	89	0.012598639105	1
13	89	0.012598639105	0
13	111	0.013183763705	1
13	111	0.013183763705	0
13	147	0.500185689233	1
13	147	0.500185689233	0
13	176	1.000275455588	1
13	176	1.000275455588	0
13	202	1.500122765182	1
13	202	1.500122765182	0
13	231	2.000414553412	1
13	231	2.000414553412	0
13	257	2.500289727832	1
13	257	2.500289727832	0
13	286	3.001073273836	1
13	286	3.001073273836	0
13	314	3.502000599364	1
13	314	3.502000599364	0
13	343	4.001767482407	1
13	343	4.001767482407	0
14	17	0.003575946825	52
14	89	0.012598639105	28
14	111	0.013183763705	540
14	147	0.500185689233	540
14	176	1.000275455588	540
14	202	1.500122765182	540
14	231	2.000414553412	540
14	257	2.500289727832	540
14	286	3.001073273836	540
14	314	3.502000599364	540
14	343	4.001767482407	540
15	17	0.003575946825	0
15	89	0.012598639105	0
15	111	0.013183763705	0
15	147	0.500185689233	0
15	176	1.000275455588	0
15	202	1.500122765182	0
15	231	2.000414553412	0
15	257	2.500289727832	0
15	286	3.001073273836	0
15	314	3.502000599364	0
15	343	4.001767482407	0
16	17	0.003575946825	75
16	89	0.012598639105	51
16	111	0.013183763705	563
16	147	0.500185689233	563
16	176	1.000275455588	563
16	202	1.500122765182	563
16	231	2.000414553412	563
16	257	2.500289727832	563
16	286	3.001073273836	563
16	314	3.502000599364	563
16	343	4.001767482407	563
17	23	0.003924509125	75
17	54	0.008747048899	51
17	73	0.009332259953	71
17	98	0.012851201405	51
17	120	0.015484326005	563
17	153	0.502486251533	563
17	182	1.002576017888	563
17	208	1.502423327482	563
17	237	2.002715115712	563
17	263	2.502590290132	563
17	292	3.003373836136	563
17	320	3.504301161664	563
17	349	4.004068044707	563
18	23	0.003924509125	52
18	54	0.008747048899	28
18	73	0.009332259953	48
18	98	0.012851201405	28
18	120	0.015484326005	540
18	153	0.502486251533	540
18	182	1.002576017888	540
18	208	1.502423327482	540
18	237	2.002715115712	540
18	263	2.502590290132	540
18	292	3.003373836136	540
18	320	3.504301161664	540
18	349	4.004068044707	540
19	25	0.003924509125	32
19	75	0.009332259953	28
20	25	0.003924509125	1
20	75	0.009332259953	2
21	29	0.008145837845	32
21	79	0.012346076805	28
22	31	0.008145837845	52
22	56	0.008747048899	28
22	81	0.012346076805	28
22	100	0.012851201405	48
22	122	0.015484326005	540
22	155	0.502486251533	540
22	184	1.002576017888	540
22	210	1.502423327482	540
22	239	2.002715115712	540
22	265	2.502590290132	540
22	294	3.003373836136	540
22	322	3.504301161664	540
22	351	4.004068044707	540
23	31	0.008145837845	52
23	56	0.008747048899	28
23	81	0.012346076805	28
23	100	0.012851201405	48
23	122	0.015484326005	540
23	155	0.502486251533	540
23	184	1.002576017888	540
23	210	1.502423327482	540
23	239	2.002715115712	540
23	265	2.502590290132	540
23	294	3.003373836136	540
23	322	3.504301161664	540
23	351	4.004068044707	540
24	31	0.008145837845	1
24	31	0.008145837845	0
24	56	0.008747048899	1
24	56	0.008747048899	0
24	81	0.012346076805	1
24	81	0.012346076805	0
24	100	0.012851201405	1
24	100	0.012851201405	0
24	122	0.015484326005	1
24	122	0.015484326005	0
24	155	0.502486251533	1
24	155	0.502486251533	0
24	184	1.002576017888	1
24	184	1.002576017888	0
24	210	1.502423327482	1
24	210	1.502423327482	0
24	239	2.002715115712	1
24	239	2.002715115712	0
24	265	2.502590290132	1
24	265	2.502590290132	0
24	294	3.003373836136	1
24	294	3.003373836136	0
24	322	3.504301161664	1
24	322	3.504301161664	0
24	351	4.004068044707	1
24	351	4.004068044707	0
25	31	0.008145837845	52
25	56	0.008747048899	28
25	81	0.012346076805	28
25	100	0.012851201405	48
25	122	0.015484326005	540
25	155	0.502486251533	540
25	184	1.002576017888	540
25	210	1.502423327482	540
25	239	2.002715115712	540
25	265	2.502590290132	540
25	294	3.003373836136	540
25	322	3.504301161664	540
25	351	4.004068044707	540
26	31	0.008145837845	0
26	56	0.008747048899	0
26	81	0.012346076805	0
26	100	0.012851201405	0
26	122	0.015484326005	0
26	155	0.502486251533	0
26	184	1.002576017888	0
26	210	1.502423327482	0
26	239	2.002715115712	0
26	265	2.502590290132	0
26	294	3.003373836136	0
26	322	3.504301161664	0
26	351	4.004068044707	0
27	31	0.008145837845	75
27	56	0.008747048899	51
27	81	0.012346076805	51
27	100	0.012851201405	71
27	122	0.015484326005	563
27	155	0.502486251533	563
27	184	1.002576017888	563
27	210	1.502423327482	563
27	239	2.002715115712	563
27	265	2.502590290132	563
27	294	3.003373836136	563
27	322	3.504301161664	563
27	351	4.004068044707	563
28	37	0.008494400145	75
28	63	0.008999611199	51
28	87	0.012598639105	51
28	107	0.013183763705	71
28	129	0.017784888305	563
28	162	0.504786813833	563
28	191	1.004876580188	563
28	217	1.504723889782	563
28	246	2.005015678012	563
28	272	2.504890852432	563
28	301	3.005674398436	563
28	329	3.506601723964	563
28	358	4.006368607007	563
29	37	0.008494400145	52
29	87	0.012598639105	28
29	107	0.013183763705	48
30	39	0.008494400145	32
30	109	0.013183763705	28
31	39	0.008494400145	1
31	109	0.013183763705	2
32	42	0.008494443372	75
32	65	0.008999654426	51
32	92	0.012598682332	51
32	114	0.013183806932	71
32	131	0.017784931532	563
32	164	0.50478685706	563
32	193	1.004876623415	563
32	219	1.504723933009	563
32	248	2.005015721239	563
32	274	2.504890895659	563
32	303	3.005674441663	563
32	331	3.506601767191	563
32	360	4.006368650234	563
33	42	0.008494443372	52
33	65	0.008999654426	28
33	92	0.012598682332	28
33	131	0.017784931532	540
33	164	0.50478685706	540
33	193	1.004876623415	540
33	219	1.504723933009	540
33	248	2.005015721239	540
33	274	2.504890895659	540
33	303	3.005674441663	540
33	331	3.506601767191	540
33	360	4.006368650234	540
34	44	0.008494443372	32
34	133	0.017784931532	520
34	166	0.50478685706	520
34	195	1.004876623415	520
34	221	1.504723933009	520
34	250	2.005015721239	520
34	276	2.504890895659	520
34	305	3.005674441663	520
34	333	3.506601767191	520
34	362	4.006368650234	520
35	44	0.008494443372	1
35	133	0.017784931532	2
35	166	0.50478685706	3
35	195	1.004876623415	4
35	221	1.504723933009	5
35	250	2.005015721239	6
35	276	2.504890895659	7
35	305	3.005674441663	8
35	333	3.506601767191	9
35	362	4.006368650234	10
36	46	0.008494443372	28
37	47	0.008494443372	28
38	48	0.008494443372	28
38	67	0.008999654426	48
39	48	0.008494443372	28
39	67	0.008999654426	48
40	48	0.008494443372	1
40	48	0.008494443372	0
40	67	0.008999654426	1
40	67	0.008999654426	0
41	48	0.008494443372	28
41	67	0.008999654426	48
42	48	0.008494443372	0
42	67	0.008999654426	0
43	48	0.008494443372	51
43	67	0.008999654426	71
44	55	0.008747048899	28
45	63	0.008999611199	51
45	129	0.017784888305	563
45	162	0.504786813833	563
45	191	1.004876580188	563
45	217	1.504723889782	563
45	246	2.005015678012	563
45	272	2.504890852432	563
45	301	3.005674398436	563
45	329	3.506601723964	563
45	358	4.006368607007	563
46	80	0.012346076805	28
47	88	0.012598639105	28
48	114	0.013183806932	71
49	134	0.017784931532	512
49	167	0.50478685706	512
49	196	1.004876623415	512
49	222	1.504723933009	512
49	251	2.005015721239	512
49	277	2.504890895659	512
49	306	3.005674441663	512
49	334	3.506601767191	512
49	363	4.006368650234	512
50	134	0.017784931532	0.017784931532
50	167	0.50478685706	0.004601167827
50	196	1.004876623415	0.004601167827
50	222	1.504723933009	0.004601167827
50	251	2.005015721239	0.004601167827
50	277	2.504890895659	0.004601167827
50	306	3.005674441663	0.004601167827
50	334	3.506601767191	0.004601167827
50	363	4.006368650234	0.004601167827
51	134	0.017784931532	0
51	167	0.50478685706	1
51	196	1.004876623415	2
51	222	1.504723933009	3
51	251	2.005015721239	4
51	277	2.504890895659	5
51	306	3.005674441663	6
51	334	3.506601767191	7
51	363	4.006368650234	8
52	167	0.1	40960
52	167	0.2	0
52	167	0.3	0
52	167	0.4	0
52	167	0.5	0
52	196	0.6	40960
52	196	0.7	0
52	196	0.8	0
52	196	0.9	0
52	196	1	0
52	222	1.1	40960
52	222	1.2	0
52	222	1.3	0
52	222	1.4	0
52	222	1.5	0
52	251	1.6	40960
52	251	1.7	0
52	251	1.8	0
52	251	1.9	0
52	251	2	0
52	277	2.1	40960
52	277	2.2	0
52	277	2.3	0
52	277	2.4	0
52	277	2.5	0
52	306	2.6	40960
52	306	2.7	0
52	306	2.8	0
52	306	2.9	0
52	306	3	0
52	334	3.1	40960
52	334	3.2	0
52	334	3.3	0
52	334	3.4	0
52	334	3.5	0
52	363	3.6	40960
52	363	3.7	0
52	363	3.8	0
52	363	3.9	0
52	363	4	0
3	380	4.504652057074	3
3	383	4.506952057074	1
3	409	5.004709846917	3
3	412	5.007009846917	1
3	436	5.504845936045	3
3	439	5.507145936045	1
4	370	4.502350932474	2
4	373	4.504650932474	1
4	399	5.002408722317	2
4	402	5.004708722317	1
4	426	5.502544811445	2
4	429	5.504844811445	1
5	381	4.504652100301	3
5	385	4.506952100301	1
5	410	5.004709890144	3
5	414	5.007009890144	1
5	437	5.504845979272	3
5	441	5.507145979272	1
7	371	4.502351494774	3
7	374	4.504651494774	1
7	400	5.002409284617	3
7	403	5.004709284617	1
7	427	5.502545373745	3
7	430	5.504845373745	1
8	378	4.504651494774	2
8	382	4.506951494774	1
8	407	5.004709284617	2
8	411	5.007009284617	1
8	434	5.504845373745	2
8	438	5.507145373745	1
9	366	4.502350932474	512
9	395	5.002408722317	512
9	422	5.502544811445	512
10	367	4.502350932474	520
10	396	5.002408722317	520
10	423	5.502544811445	520
11	369	4.502350932474	540
11	398	5.002408722317	540
11	425	5.502544811445	540
12	369	4.502350932474	540
12	398	5.002408722317	540
12	425	5.502544811445	540
13	369	4.502350932474	1
13	369	4.502350932474	0
13	398	5.002408722317	1
13	398	5.002408722317	0
13	425	5.502544811445	1
13	425	5.502544811445	0
14	369	4.502350932474	540
14	398	5.002408722317	540
14	425	5.502544811445	540
15	369	4.502350932474	0
15	398	5.002408722317	0
15	425	5.502544811445	0
16	369	4.502350932474	563
16	398	5.002408722317	563
16	425	5.502544811445	563
17	375	4.504651494774	563
17	404	5.004709284617	563
17	431	5.504845373745	563
18	375	4.504651494774	540
18	404	5.004709284617	540
18	431	5.504845373745	540
22	377	4.504651494774	540
22	406	5.004709284617	540
22	433	5.504845373745	540
23	377	4.504651494774	540
23	406	5.004709284617	540
23	433	5.504845373745	540
24	377	4.504651494774	1
24	377	4.504651494774	0
24	406	5.004709284617	1
24	406	5.004709284617	0
24	433	5.504845373745	1
24	433	5.504845373745	0
25	377	4.504651494774	540
25	406	5.004709284617	540
25	433	5.504845373745	540
26	377	4.504651494774	0
26	406	5.004709284617	0
26	433	5.504845373745	0
27	377	4.504651494774	563
27	406	5.004709284617	563
27	433	5.504845373745	563
28	384	4.506952057074	563
28	413	5.007009846917	563
28	440	5.507145936045	563
32	386	4.506952100301	563
32	415	5.007009890144	563
32	442	5.507145979272	563
33	386	4.506952100301	540
33	415	5.007009890144	540
33	442	5.507145979272	540
34	388	4.506952100301	520
34	417	5.007009890144	520
34	444	5.507145979272	520
35	388	4.506952100301	11
35	417	5.007009890144	12
35	444	5.507145979272	13
45	384	4.506952057074	563
45	413	5.007009846917	563
45	440	5.507145936045	563
49	389	4.506952100301	512
49	418	5.007009890144	512
49	445	5.507145979272	512
50	389	4.506952100301	0.004601167827
50	418	5.007009890144	0.004601167827
50	445	5.507145979272	0.004601167827
51	389	4.506952100301	9
51	418	5.007009890144	10
51	445	5.507145979272	11
52	389	4.1	40960
52	389	4.2	0
52	389	4.3	0
52	389	4.4	0
52	389	4.5	0
52	418	4.6	40960
52	418	4.7	0
52	418	4.8	0
52	418	4.9	0
52	418	5	0
52	445	5.1	40960
52	445	5.2	0
52	445	5.3	0
52	445	5.4	0
52	445	5.5	0
3	467	6.005697129311	3
3	470	6.007997129311	1
3	493	6.504839201428	3
3	496	6.507139201428	1
3	522	7.004013460022	3
3	525	7.006313460022	1
3	548	7.50305389682	3
3	551	7.50535389682	1
3	577	8.003719136506	3
3	580	8.006019136506	1
3	604	8.50427545002	3
3	608	8.50657545002	1
4	457	6.003396004711	2
4	460	6.005696004711	1
4	483	6.502538076828	2
4	486	6.504838076828	1
4	512	7.001712335422	2
4	515	7.004012335422	1
4	538	7.50075277222	2
4	541	7.50305277222	1
4	567	8.001418011906	2
4	570	8.003718011906	1
4	593	8.50197432542	2
4	597	8.50427432542	1
5	468	6.005697172538	3
5	472	6.007997172538	1
5	494	6.504839244655	3
5	498	6.507139244655	1
5	523	7.004013503249	3
5	527	7.006313503249	1
5	549	7.503053940047	3
5	553	7.505353940047	1
5	578	8.003719179733	3
5	582	8.006019179733	1
5	605	8.504275493247	3
5	610	8.506575493247	1
7	458	6.003396567011	3
7	461	6.005696567011	1
7	484	6.502538639128	3
7	487	6.504838639128	1
7	513	7.001712897722	3
7	516	7.004012897722	1
7	539	7.50075333452	3
7	542	7.50305333452	1
7	568	8.001418574206	3
7	571	8.003718574206	1
7	594	8.50197488772	3
7	598	8.50427488772	1
8	465	6.005696567011	2
8	469	6.007996567011	1
8	491	6.504838639128	2
8	495	6.507138639128	1
8	520	7.004012897722	2
8	524	7.006312897722	1
8	546	7.50305333452	2
8	550	7.50535333452	1
8	575	8.003718574206	2
8	579	8.006018574206	1
8	602	8.50427488772	2
8	607	8.50657488772	1
9	453	6.003396004711	512
9	479	6.502538076828	512
9	508	7.001712335422	512
9	534	7.50075277222	512
9	563	8.001418011906	512
9	589	8.50197432542	512
10	454	6.003396004711	520
10	480	6.502538076828	520
10	509	7.001712335422	520
10	535	7.50075277222	520
10	564	8.001418011906	520
10	590	8.50197432542	520
11	456	6.003396004711	540
11	482	6.502538076828	540
11	511	7.001712335422	540
11	537	7.50075277222	540
11	566	8.001418011906	540
11	592	8.50197432542	540
12	456	6.003396004711	540
12	482	6.502538076828	540
12	511	7.001712335422	540
12	537	7.50075277222	540
12	566	8.001418011906	540
12	592	8.50197432542	540
13	456	6.003396004711	1
13	456	6.003396004711	0
13	482	6.502538076828	1
13	482	6.502538076828	0
13	511	7.001712335422	1
13	511	7.001712335422	0
13	537	7.50075277222	1
13	537	7.50075277222	0
13	566	8.001418011906	1
13	566	8.001418011906	0
13	592	8.50197432542	1
13	592	8.50197432542	0
14	456	6.003396004711	540
14	482	6.502538076828	540
14	511	7.001712335422	540
14	537	7.50075277222	540
14	566	8.001418011906	540
14	592	8.50197432542	540
15	456	6.003396004711	0
15	482	6.502538076828	0
15	511	7.001712335422	0
15	537	7.50075277222	0
15	566	8.001418011906	0
15	592	8.50197432542	0
16	456	6.003396004711	563
16	482	6.502538076828	563
16	511	7.001712335422	563
16	537	7.50075277222	563
16	566	8.001418011906	563
16	592	8.50197432542	563
17	462	6.005696567011	563
17	488	6.504838639128	563
17	517	7.004012897722	563
17	543	7.50305333452	563
17	572	8.003718574206	563
17	599	8.50427488772	563
18	462	6.005696567011	540
18	488	6.504838639128	540
18	517	7.004012897722	540
18	543	7.50305333452	540
18	572	8.003718574206	540
18	599	8.50427488772	540
22	464	6.005696567011	540
22	490	6.504838639128	540
22	519	7.004012897722	540
22	545	7.50305333452	540
22	574	8.003718574206	540
22	601	8.50427488772	540
23	464	6.005696567011	540
23	490	6.504838639128	540
23	519	7.004012897722	540
23	545	7.50305333452	540
23	574	8.003718574206	540
23	601	8.50427488772	540
24	464	6.005696567011	1
24	464	6.005696567011	0
24	490	6.504838639128	1
24	490	6.504838639128	0
24	519	7.004012897722	1
24	519	7.004012897722	0
24	545	7.50305333452	1
24	545	7.50305333452	0
24	574	8.003718574206	1
24	574	8.003718574206	0
24	601	8.50427488772	1
24	601	8.50427488772	0
25	464	6.005696567011	540
25	490	6.504838639128	540
25	519	7.004012897722	540
25	545	7.50305333452	540
25	574	8.003718574206	540
25	601	8.50427488772	540
26	464	6.005696567011	0
26	490	6.504838639128	0
26	519	7.004012897722	0
26	545	7.50305333452	0
26	574	8.003718574206	0
26	601	8.50427488772	0
27	464	6.005696567011	563
27	490	6.504838639128	563
27	519	7.004012897722	563
27	545	7.50305333452	563
27	574	8.003718574206	563
27	601	8.50427488772	563
28	471	6.007997129311	563
28	497	6.507139201428	563
28	526	7.006313460022	563
28	552	7.50535389682	563
28	581	8.006019136506	563
28	609	8.50657545002	563
32	473	6.007997172538	563
32	499	6.507139244655	563
32	528	7.006313503249	563
32	554	7.505353940047	563
32	583	8.006019179733	563
32	611	8.506575493247	563
33	473	6.007997172538	540
33	499	6.507139244655	540
33	528	7.006313503249	540
33	554	7.505353940047	540
33	583	8.006019179733	540
33	611	8.506575493247	540
34	475	6.007997172538	520
34	501	6.507139244655	520
34	530	7.006313503249	520
34	556	7.505353940047	520
34	585	8.006019179733	520
34	613	8.506575493247	520
35	475	6.007997172538	14
35	501	6.507139244655	15
35	530	7.006313503249	16
35	556	7.505353940047	17
35	585	8.006019179733	18
35	613	8.506575493247	19
45	471	6.007997129311	563
45	497	6.507139201428	563
45	526	7.006313460022	563
45	552	7.50535389682	563
45	581	8.006019136506	563
45	609	8.50657545002	563
49	476	6.007997172538	512
49	502	6.507139244655	512
49	531	7.006313503249	512
49	557	7.505353940047	512
49	586	8.006019179733	512
49	614	8.506575493247	512
50	476	6.007997172538	0.004601167827
50	502	6.507139244655	0.004601167827
50	531	7.006313503249	0.004601167827
50	557	7.505353940047	0.004601167827
50	586	8.006019179733	0.004601167827
50	614	8.506575493247	0.004601167827
51	476	6.007997172538	12
51	502	6.507139244655	13
51	531	7.006313503249	14
51	557	7.505353940047	15
51	586	8.006019179733	16
51	614	8.506575493247	17
52	476	5.6	40960
52	476	5.7	0
52	476	5.8	0
52	476	5.9	0
52	476	6	0
52	502	6.1	40960
52	502	6.2	0
52	502	6.3	0
52	502	6.4	0
52	502	6.5	0
52	531	6.6	40960
52	531	6.7	0
52	531	6.8	0
52	531	6.9	0
52	531	7	0
52	557	7.1	40960
52	557	7.2	0
52	557	7.3	0
52	557	7.4	0
52	557	7.5	0
52	586	7.6	40960
52	586	7.7	0
52	586	7.8	0
52	586	7.9	0
52	586	8	0
52	614	8.1	40960
52	614	8.2	0
52	614	8.3	0
52	614	8.4	0
52	614	8.5	0
3	634	9.005015474311	3
3	637	9.007315474311	1
4	624	9.002714349711	2
4	627	9.005014349711	1
5	635	9.005015517538	3
5	639	9.007315517538	1
7	625	9.002714912011	3
7	628	9.005014912011	1
8	632	9.005014912011	2
8	636	9.007314912011	1
9	620	9.002714349711	512
10	621	9.002714349711	520
11	623	9.002714349711	540
12	623	9.002714349711	540
13	623	9.002714349711	1
13	623	9.002714349711	0
14	623	9.002714349711	540
15	623	9.002714349711	0
16	623	9.002714349711	563
17	629	9.005014912011	563
18	629	9.005014912011	540
22	631	9.005014912011	540
23	631	9.005014912011	540
24	631	9.005014912011	1
24	631	9.005014912011	0
25	631	9.005014912011	540
26	631	9.005014912011	0
27	631	9.005014912011	563
28	638	9.007315474311	563
32	640	9.007315517538	563
33	640	9.007315517538	540
34	642	9.007315517538	520
35	642	9.007315517538	20
45	638	9.007315474311	563
49	643	9.007315517538	512
50	643	9.007315517538	0.004601167827
51	643	9.007315517538	18
52	643	8.6	40960
52	643	8.7	0
52	643	8.8	0
52	643	8.9	0
52	643	9	0
vector 53 SimpleDropongAttack.droper.ipv4.ip rcvdPkt:vector ETV
attr interpolationmode none
attr title "Number of packet received, vector"
vector 54 SimpleDropongAttack.droper.ipv4.ip droppings:vector ETV
attr interpolationmode none
attr title "Number of drops, vector"
3	660	9.505972710997	3
3	663	9.508272710997	1
4	650	9.503671586397	2
4	653	9.505971586397	1
4	680	10.004269903525	2
4	683	10.006569903525	1
5	661	9.505972754224	3
5	665	9.508272754224	1
7	651	9.503672148697	3
7	654	9.505972148697	1
7	681	10.004270465825	3
7	684	10.006570465825	1
8	658	9.505972148697	2
8	662	9.508272148697	1
9	646	9.503671586397	512
9	676	10.004269903525	512
10	647	9.503671586397	520
10	677	10.004269903525	520
11	649	9.503671586397	540
11	679	10.004269903525	540
12	649	9.503671586397	540
12	679	10.004269903525	540
13	649	9.503671586397	1
13	649	9.503671586397	0
13	679	10.004269903525	1
13	679	10.004269903525	0
14	649	9.503671586397	540
14	679	10.004269903525	540
15	649	9.503671586397	0
15	679	10.004269903525	0
16	649	9.503671586397	563
16	679	10.004269903525	563
17	655	9.505972148697	563
17	685	10.006570465825	563
18	655	9.505972148697	540
18	685	10.006570465825	540
22	657	9.505972148697	540
23	657	9.505972148697	540
24	657	9.505972148697	1
24	657	9.505972148697	0
25	657	9.505972148697	540
26	657	9.505972148697	0
27	657	9.505972148697	563
28	664	9.508272710997	563
32	666	9.508272754224	563
33	666	9.508272754224	540
34	668	9.508272754224	520
35	668	9.508272754224	21
45	664	9.508272710997	563
49	669	9.508272754224	512
50	669	9.508272754224	0.004601167827
51	669	9.508272754224	19
52	669	9.1	40960
52	669	9.2	0
52	669	9.3	0
52	669	9.4	0
52	669	9.5	0
53	686	10.006570465825	1
54	686	10.006570465825	1
4	693	10.504192862251	2
4	696	10.506492862251	1
4	709	11.004550621318	2
4	712	11.006850621318	1
7	694	10.504193424551	3
7	697	10.506493424551	1
7	710	11.004551183618	3
7	713	11.006851183618	1
9	689	10.504192862251	512
9	705	11.004550621318	512
10	690	10.504192862251	520
10	706	11.004550621318	520
11	692	10.504192862251	540
11	708	11.004550621318	540
12	692	10.504192862251	540
12	708	11.004550621318	540
13	692	10.504192862251	1
13	692	10.504192862251	0
13	708	11.004550621318	1
13	708	11.004550621318	0
14	692	10.504192862251	540
14	708	11.004550621318	540
15	692	10.504192862251	0
15	708	11.004550621318	0
16	692	10.504192862251	563
16	708	11.004550621318	563
17	698	10.506493424551	563
17	714	11.006851183618	563
18	698	10.506493424551	540
18	714	11.006851183618	540
53	699	10.506493424551	2
53	715	11.006851183618	3
54	699	10.506493424551	2
54	715	11.006851183618	3
4	724	11.504830463352	2
4	727	11.507130463352	1
4	740	12.004905209808	2
4	743	12.007205209808	1
4	753	12.504948906464	2
4	757	12.507248906464	1
4	770	13.004896107309	2
4	773	13.007196107309	1
4	783	13.505444574682	2
4	786	13.507744574682	1
4	800	14.004877675395	2
4	803	14.007177675395	1
4	813	14.503915254991	2
4	816	14.506215254991	1
4	829	15.003214604719	2
4	832	15.005514604719	1
4	842	15.503448472716	2
4	845	15.505748472716	1
4	858	16.004253669659	2
4	861	16.006553669659	1
4	871	16.503972685463	2
4	875	16.506272685463	1
4	888	17.004777382619	2
4	891	17.007077382619	1
4	901	17.503897833552	2
4	904	17.506197833552	1
4	917	18.004204113616	2
4	920	18.006504113616	1
4	931	18.503624878739	2
4	934	18.505924878739	1
4	947	19.004126251017	2
4	950	19.006426251017	1
4	960	19.503853672564	2
4	964	19.506153672564	1
4	977	20.002930523415	2
4	980	20.005230523415	1
4	991	20.503907271079	2
4	994	20.506207271079	1
4	1007	21.004212851717	2
4	1010	21.006512851717	1
4	1020	21.503535470739	2
4	1023	21.505835470739	1
4	1036	22.003699171403	2
4	1039	22.005999171403	1
4	1049	22.503631792949	2
4	1053	22.505931792949	1
4	1066	23.003878813161	2
4	1069	23.006178813161	1
4	1079	23.503099563439	2
4	1082	23.505399563439	1
4	1095	24.002733966929	2
4	1098	24.005033966929	1
4	1108	24.502127131642	2
4	1111	24.504427131642	1
4	1124	25.002452185378	2
4	1127	25.004752185378	1
4	1137	25.50164638792	2
4	1141	25.50394638792	1
4	1154	26.001993707182	2
4	1157	26.004293707182	1
4	1167	26.502946626112	2
4	1170	26.505246626112	1
4	1183	27.002965874856	2
4	1186	27.005265874856	1
4	1196	27.503175565892	2
4	1199	27.505475565892	1
4	1214	28.002215541237	2
4	1217	28.004515541237	1
4	1228	28.501781155156	2
4	1231	28.504081155156	1
4	1244	29.001500044094	2
4	1247	29.003800044094	1
4	1257	29.500737499523	2
4	1260	29.503037499523	1
4	1273	30.001498451309	2
4	1276	30.003798451309	1
4	1286	30.500626746311	2
4	1289	30.502926746311	1
4	1302	31.000757124042	2
4	1306	31.003057124042	1
4	1316	31.500287903024	2
4	1319	31.502587903024	1
4	1332	32.001121348937	2
4	1335	32.003421348937	1
4	1345	32.501273241927	2
4	1348	32.503573241927	1
4	1361	33.000828679055	2
4	1364	33.003128679055	1
4	1374	33.501163499807	2
4	1377	33.503463499807	1
4	1391	34.001457848084	2
4	1394	34.003757848084	1
4	1404	34.501036660266	2
4	1407	34.503336660266	1
4	1420	35.000832301769	2
4	1423	35.003132301769	1
4	1433	35.49987251687	2
4	1436	35.50217251687	1
4	1446	35.999612133061	2
4	1452	36.001912133061	1
4	1462	36.49996776614	2
4	1466	36.50226776614	1
4	1479	37.000375240702	2
4	1482	37.002675240702	1
4	1492	37.501299617792	2
4	1495	37.503599617792	1
4	1508	38.001811831175	2
4	1511	38.004111831175	1
4	1521	38.501995915028	2
4	1524	38.504295915028	1
4	1537	39.002273757188	2
4	1540	39.004573757188	1
4	1551	39.503179255206	2
4	1554	39.505479255206	1
4	1567	40.00307765067	2
4	1570	40.00537765067	1
4	1580	40.503476609225	2
4	1583	40.505776609225	1
4	1596	41.00401065663	2
4	1599	41.00631065663	1
4	1609	41.503803668108	2
4	1612	41.506103668108	1
4	1626	42.003303260658	2
4	1629	42.005603260658	1
4	1639	42.504066731377	2
4	1642	42.506366731377	1
4	1655	43.004243661544	2
4	1658	43.006543661544	1
4	1668	43.50424631031	2
4	1671	43.50654631031	1
4	1684	44.003707376356	2
4	1687	44.006007376356	1
4	1697	44.503555086444	2
4	1701	44.505855086444	1
4	1714	45.003504821487	2
4	1717	45.005804821487	1
4	1727	45.503107971119	2
4	1730	45.505407971119	1
4	1743	46.002683953127	2
4	1746	46.004983953127	1
4	1756	46.502919983981	2
4	1759	46.505219983981	1
4	1772	47.003676888363	2
4	1775	47.005976888363	1
4	1785	47.503273453019	2
4	1789	47.505573453019	1
4	1802	48.002981546348	2
4	1805	48.005281546348	1
4	1815	48.50313019686	2
4	1818	48.50543019686	1
4	1831	49.004068120392	2
4	1834	49.006368120392	1
4	1844	49.503930957261	2
4	1847	49.506230957261	1
7	725	11.504831025652	3
7	728	11.507131025652	1
7	741	12.004905772108	3
7	744	12.007205772108	1
7	754	12.504949468764	3
7	758	12.507249468764	1
7	771	13.004896669609	3
7	774	13.007196669609	1
7	784	13.505445136982	3
7	787	13.507745136982	1
7	801	14.004878237695	3
7	804	14.007178237695	1
7	814	14.503915817291	3
7	817	14.506215817291	1
7	830	15.003215167019	3
7	833	15.005515167019	1
7	843	15.503449035016	3
7	846	15.505749035016	1
7	859	16.004254231959	3
7	862	16.006554231959	1
7	872	16.503973247763	3
7	876	16.506273247763	1
7	889	17.004777944919	3
7	892	17.007077944919	1
7	902	17.503898395852	3
7	905	17.506198395852	1
7	918	18.004204675916	3
7	921	18.006504675916	1
7	932	18.503625441039	3
7	935	18.505925441039	1
7	948	19.004126813317	3
7	951	19.006426813317	1
7	961	19.503854234864	3
7	965	19.506154234864	1
7	978	20.002931085715	3
7	981	20.005231085715	1
7	992	20.503907833379	3
7	995	20.506207833379	1
7	1008	21.004213414017	3
7	1011	21.006513414017	1
7	1021	21.503536033039	3
7	1024	21.505836033039	1
7	1037	22.003699733703	3
7	1040	22.005999733703	1
7	1050	22.503632355249	3
7	1054	22.505932355249	1
7	1067	23.003879375461	3
7	1070	23.006179375461	1
7	1080	23.503100125739	3
7	1083	23.505400125739	1
7	1096	24.002734529229	3
7	1099	24.005034529229	1
7	1109	24.502127693942	3
7	1112	24.504427693942	1
7	1125	25.002452747678	3
7	1128	25.004752747678	1
7	1138	25.50164695022	3
7	1142	25.50394695022	1
7	1155	26.001994269482	3
7	1158	26.004294269482	1
7	1168	26.502947188412	3
7	1171	26.505247188412	1
7	1184	27.002966437156	3
7	1187	27.005266437156	1
7	1197	27.503176128192	3
7	1200	27.505476128192	1
7	1215	28.002216103537	3
7	1218	28.004516103537	1
7	1229	28.501781717456	3
7	1232	28.504081717456	1
7	1245	29.001500606394	3
7	1248	29.003800606394	1
7	1258	29.500738061823	3
7	1261	29.503038061823	1
7	1274	30.001499013609	3
7	1277	30.003799013609	1
7	1287	30.500627308611	3
7	1290	30.502927308611	1
7	1303	31.000757686342	3
7	1307	31.003057686342	1
7	1317	31.500288465324	3
7	1320	31.502588465324	1
7	1333	32.001121911237	3
7	1336	32.003421911237	1
7	1346	32.501273804227	3
7	1349	32.503573804227	1
7	1362	33.000829241355	3
7	1365	33.003129241355	1
7	1375	33.501164062107	3
7	1378	33.503464062107	1
7	1392	34.001458410384	3
7	1395	34.003758410384	1
7	1405	34.501037222566	3
7	1408	34.503337222566	1
7	1421	35.000832864069	3
7	1424	35.003132864069	1
7	1434	35.49987307917	3
7	1437	35.50217307917	1
7	1447	35.999612695361	3
7	1453	36.001912695361	1
7	1463	36.49996832844	3
7	1467	36.50226832844	1
7	1480	37.000375803002	3
7	1483	37.002675803002	1
7	1493	37.501300180092	3
7	1496	37.503600180092	1
7	1509	38.001812393475	3
7	1512	38.004112393475	1
7	1522	38.501996477328	3
7	1525	38.504296477328	1
7	1538	39.002274319488	3
7	1541	39.004574319488	1
7	1552	39.503179817506	3
7	1555	39.505479817506	1
7	1568	40.00307821297	3
7	1571	40.00537821297	1
7	1581	40.503477171525	3
7	1584	40.505777171525	1
7	1597	41.00401121893	3
7	1600	41.00631121893	1
7	1610	41.503804230408	3
7	1613	41.506104230408	1
7	1627	42.003303822958	3
7	1630	42.005603822958	1
7	1640	42.504067293677	3
7	1643	42.506367293677	1
7	1656	43.004244223844	3
7	1659	43.006544223844	1
7	1669	43.50424687261	3
7	1672	43.50654687261	1
7	1685	44.003707938656	3
7	1688	44.006007938656	1
7	1698	44.503555648744	3
7	1702	44.505855648744	1
7	1715	45.003505383787	3
7	1718	45.005805383787	1
7	1728	45.503108533419	3
7	1731	45.505408533419	1
7	1744	46.002684515427	3
7	1747	46.004984515427	1
7	1757	46.502920546281	3
7	1760	46.505220546281	1
7	1773	47.003677450663	3
7	1776	47.005977450663	1
7	1786	47.503274015319	3
7	1790	47.505574015319	1
7	1803	48.002982108648	3
7	1806	48.005282108648	1
7	1816	48.50313075916	3
7	1819	48.50543075916	1
7	1832	49.004068682692	3
7	1835	49.006368682692	1
7	1845	49.503931519561	3
7	1848	49.506231519561	1
9	720	11.504830463352	512
9	736	12.004905209808	512
9	749	12.504948906464	512
9	766	13.004896107309	512
9	779	13.505444574682	512
9	796	14.004877675395	512
9	809	14.503915254991	512
9	825	15.003214604719	512
9	838	15.503448472716	512
9	854	16.004253669659	512
9	867	16.503972685463	512
9	884	17.004777382619	512
9	897	17.503897833552	512
9	913	18.004204113616	512
9	927	18.503624878739	512
9	943	19.004126251017	512
9	956	19.503853672564	512
9	973	20.002930523415	512
9	987	20.503907271079	512
9	1003	21.004212851717	512
9	1016	21.503535470739	512
9	1032	22.003699171403	512
9	1045	22.503631792949	512
9	1062	23.003878813161	512
9	1075	23.503099563439	512
9	1091	24.002733966929	512
9	1104	24.502127131642	512
9	1120	25.002452185378	512
9	1133	25.50164638792	512
9	1150	26.001993707182	512
9	1163	26.502946626112	512
9	1179	27.002965874856	512
9	1192	27.503175565892	512
9	1210	28.002215541237	512
9	1224	28.501781155156	512
9	1240	29.001500044094	512
9	1253	29.500737499523	512
9	1269	30.001498451309	512
9	1282	30.500626746311	512
9	1298	31.000757124042	512
9	1312	31.500287903024	512
9	1328	32.001121348937	512
9	1341	32.501273241927	512
9	1357	33.000828679055	512
9	1370	33.501163499807	512
9	1387	34.001457848084	512
9	1400	34.501036660266	512
9	1416	35.000832301769	512
9	1429	35.49987251687	512
9	1442	35.999612133061	512
9	1458	36.49996776614	512
9	1475	37.000375240702	512
9	1488	37.501299617792	512
9	1504	38.001811831175	512
9	1517	38.501995915028	512
9	1533	39.002273757188	512
9	1547	39.503179255206	512
9	1563	40.00307765067	512
9	1576	40.503476609225	512
9	1592	41.00401065663	512
9	1605	41.503803668108	512
9	1622	42.003303260658	512
9	1635	42.504066731377	512
9	1651	43.004243661544	512
9	1664	43.50424631031	512
9	1680	44.003707376356	512
9	1693	44.503555086444	512
9	1710	45.003504821487	512
9	1723	45.503107971119	512
9	1739	46.002683953127	512
9	1752	46.502919983981	512
9	1768	47.003676888363	512
9	1781	47.503273453019	512
9	1798	48.002981546348	512
9	1811	48.50313019686	512
9	1827	49.004068120392	512
9	1840	49.503930957261	512
10	721	11.504830463352	520
10	737	12.004905209808	520
10	750	12.504948906464	520
10	767	13.004896107309	520
10	780	13.505444574682	520
10	797	14.004877675395	520
10	810	14.503915254991	520
10	826	15.003214604719	520
10	839	15.503448472716	520
10	855	16.004253669659	520
10	868	16.503972685463	520
10	885	17.004777382619	520
10	898	17.503897833552	520
10	914	18.004204113616	520
10	928	18.503624878739	520
10	944	19.004126251017	520
10	957	19.503853672564	520
10	974	20.002930523415	520
10	988	20.503907271079	520
10	1004	21.004212851717	520
10	1017	21.503535470739	520
10	1033	22.003699171403	520
10	1046	22.503631792949	520
10	1063	23.003878813161	520
10	1076	23.503099563439	520
10	1092	24.002733966929	520
10	1105	24.502127131642	520
10	1121	25.002452185378	520
10	1134	25.50164638792	520
10	1151	26.001993707182	520
10	1164	26.502946626112	520
10	1180	27.002965874856	520
10	1193	27.503175565892	520
10	1211	28.002215541237	520
10	1225	28.501781155156	520
10	1241	29.001500044094	520
10	1254	29.500737499523	520
10	1270	30.001498451309	520
10	1283	30.500626746311	520
10	1299	31.000757124042	520
10	1313	31.500287903024	520
10	1329	32.001121348937	520
10	1342	32.501273241927	520
10	1358	33.000828679055	520
10	1371	33.501163499807	520
10	1388	34.001457848084	520
10	1401	34.501036660266	520
10	1417	35.000832301769	520
10	1430	35.49987251687	520
10	1443	35.999612133061	520
10	1459	36.49996776614	520
10	1476	37.000375240702	520
10	1489	37.501299617792	520
10	1505	38.001811831175	520
10	1518	38.501995915028	520
10	1534	39.002273757188	520
10	1548	39.503179255206	520
10	1564	40.00307765067	520
10	1577	40.503476609225	520
10	1593	41.00401065663	520
10	1606	41.503803668108	520
10	1623	42.003303260658	520
10	1636	42.504066731377	520
10	1652	43.004243661544	520
10	1665	43.50424631031	520
10	1681	44.003707376356	520
10	1694	44.503555086444	520
10	1711	45.003504821487	520
10	1724	45.503107971119	520
10	1740	46.002683953127	520
10	1753	46.502919983981	520
10	1769	47.003676888363	520
10	1782	47.503273453019	520
10	1799	48.002981546348	520
10	1812	48.50313019686	520
10	1828	49.004068120392	520
10	1841	49.503930957261	520
11	723	11.504830463352	540
11	739	12.004905209808	540
11	752	12.504948906464	540
11	769	13.004896107309	540
11	782	13.505444574682	540
11	799	14.004877675395	540
11	812	14.503915254991	540
11	828	15.003214604719	540
11	841	15.503448472716	540
11	857	16.004253669659	540
11	870	16.503972685463	540
11	887	17.004777382619	540
11	900	17.503897833552	540
11	916	18.004204113616	540
11	930	18.503624878739	540
11	946	19.004126251017	540
11	959	19.503853672564	540
11	976	20.002930523415	540
11	990	20.503907271079	540
11	1006	21.004212851717	540
11	1019	21.503535470739	540
11	1035	22.003699171403	540
11	1048	22.503631792949	540
11	1065	23.003878813161	540
11	1078	23.503099563439	540
11	1094	24.002733966929	540
11	1107	24.502127131642	540
11	1123	25.002452185378	540
11	1136	25.50164638792	540
11	1153	26.001993707182	540
11	1166	26.502946626112	540
11	1182	27.002965874856	540
11	1195	27.503175565892	540
11	1213	28.002215541237	540
11	1227	28.501781155156	540
11	1243	29.001500044094	540
11	1256	29.500737499523	540
11	1272	30.001498451309	540
11	1285	30.500626746311	540
11	1301	31.000757124042	540
11	1315	31.500287903024	540
11	1331	32.001121348937	540
11	1344	32.501273241927	540
11	1360	33.000828679055	540
11	1373	33.501163499807	540
11	1390	34.001457848084	540
11	1403	34.501036660266	540
11	1419	35.000832301769	540
11	1432	35.49987251687	540
11	1445	35.999612133061	540
11	1461	36.49996776614	540
11	1478	37.000375240702	540
11	1491	37.501299617792	540
11	1507	38.001811831175	540
11	1520	38.501995915028	540
11	1536	39.002273757188	540
11	1550	39.503179255206	540
11	1566	40.00307765067	540
11	1579	40.503476609225	540
11	1595	41.00401065663	540
11	1608	41.503803668108	540
11	1625	42.003303260658	540
11	1638	42.504066731377	540
11	1654	43.004243661544	540
11	1667	43.50424631031	540
11	1683	44.003707376356	540
11	1696	44.503555086444	540
11	1713	45.003504821487	540
11	1726	45.503107971119	540
11	1742	46.002683953127	540
11	1755	46.502919983981	540
11	1771	47.003676888363	540
11	1784	47.503273453019	540
11	1801	48.002981546348	540
11	1814	48.50313019686	540
11	1830	49.004068120392	540
11	1843	49.503930957261	540
12	723	11.504830463352	540
12	739	12.004905209808	540
12	752	12.504948906464	540
12	769	13.004896107309	540
12	782	13.505444574682	540
12	799	14.004877675395	540
12	812	14.503915254991	540
12	828	15.003214604719	540
12	841	15.503448472716	540
12	857	16.004253669659	540
12	870	16.503972685463	540
12	887	17.004777382619	540
12	900	17.503897833552	540
12	916	18.004204113616	540
12	930	18.503624878739	540
12	946	19.004126251017	540
12	959	19.503853672564	540
12	976	20.002930523415	540
12	990	20.503907271079	540
12	1006	21.004212851717	540
12	1019	21.503535470739	540
12	1035	22.003699171403	540
12	1048	22.503631792949	540
12	1065	23.003878813161	540
12	1078	23.503099563439	540
12	1094	24.002733966929	540
12	1107	24.502127131642	540
12	1123	25.002452185378	540
12	1136	25.50164638792	540
12	1153	26.001993707182	540
12	1166	26.502946626112	540
12	1182	27.002965874856	540
12	1195	27.503175565892	540
12	1213	28.002215541237	540
12	1227	28.501781155156	540
12	1243	29.001500044094	540
12	1256	29.500737499523	540
12	1272	30.001498451309	540
12	1285	30.500626746311	540
12	1301	31.000757124042	540
12	1315	31.500287903024	540
12	1331	32.001121348937	540
12	1344	32.501273241927	540
12	1360	33.000828679055	540
12	1373	33.501163499807	540
12	1390	34.001457848084	540
12	1403	34.501036660266	540
12	1419	35.000832301769	540
12	1432	35.49987251687	540
12	1445	35.999612133061	540
12	1461	36.49996776614	540
12	1478	37.000375240702	540
12	1491	37.501299617792	540
12	1507	38.001811831175	540
12	1520	38.501995915028	540
12	1536	39.002273757188	540
12	1550	39.503179255206	540
12	1566	40.00307765067	540
12	1579	40.503476609225	540
12	1595	41.00401065663	540
12	1608	41.503803668108	540
12	1625	42.003303260658	540
12	1638	42.504066731377	540
12	1654	43.004243661544	540
12	1667	43.50424631031	540
12	1683	44.003707376356	540
12	1696	44.503555086444	540
12	1713	45.003504821487	540
12	1726	45.503107971119	540
12	1742	46.002683953127	540
12	1755	46.502919983981	540
12	1771	47.003676888363	540
12	1784	47.503273453019	540
12	1801	48.002981546348	540
12	1814	48.50313019686	540
12	1830	49.004068120392	540
12	1843	49.503930957261	540
13	723	11.504830463352	1
13	723	11.504830463352	0
13	739	12.004905209808	1
13	739	12.004905209808	0
13	752	12.504948906464	1
13	752	12.504948906464	0
13	769	13.004896107309	1
13	769	13.004896107309	0
13	782	13.505444574682	1
13	782	13.505444574682	0
13	799	14.004877675395	1
13	799	14.004877675395	0
13	812	14.503915254991	1
13	812	14.503915254991	0
13	828	15.003214604719	1
13	828	15.003214604719	0
13	841	15.503448472716	1
13	841	15.503448472716	0
13	857	16.004253669659	1
13	857	16.004253669659	0
13	870	16.503972685463	1
13	870	16.503972685463	0
13	887	17.004777382619	1
13	887	17.004777382619	0
13	900	17.503897833552	1
13	900	17.503897833552	0
13	916	18.004204113616	1
13	916	18.004204113616	0
13	930	18.503624878739	1
13	930	18.503624878739	0
13	946	19.004126251017	1
13	946	19.004126251017	0
13	959	19.503853672564	1
13	959	19.503853672564	0
13	976	20.002930523415	1
13	976	20.002930523415	0
13	990	20.503907271079	1
13	990	20.503907271079	0
13	1006	21.004212851717	1
13	1006	21.004212851717	0
13	1019	21.503535470739	1
13	1019	21.503535470739	0
13	1035	22.003699171403	1
13	1035	22.003699171403	0
13	1048	22.503631792949	1
13	1048	22.503631792949	0
13	1065	23.003878813161	1
13	1065	23.003878813161	0
13	1078	23.503099563439	1
13	1078	23.503099563439	0
13	1094	24.002733966929	1
13	1094	24.002733966929	0
13	1107	24.502127131642	1
13	1107	24.502127131642	0
13	1123	25.002452185378	1
13	1123	25.002452185378	0
13	1136	25.50164638792	1
13	1136	25.50164638792	0
13	1153	26.001993707182	1
13	1153	26.001993707182	0
13	1166	26.502946626112	1
13	1166	26.502946626112	0
13	1182	27.002965874856	1
13	1182	27.002965874856	0
13	1195	27.503175565892	1
13	1195	27.503175565892	0
13	1213	28.002215541237	1
13	1213	28.002215541237	0
13	1227	28.501781155156	1
13	1227	28.501781155156	0
13	1243	29.001500044094	1
13	1243	29.001500044094	0
13	1256	29.500737499523	1
13	1256	29.500737499523	0
13	1272	30.001498451309	1
13	1272	30.001498451309	0
13	1285	30.500626746311	1
13	1285	30.500626746311	0
13	1301	31.000757124042	1
13	1301	31.000757124042	0
13	1315	31.500287903024	1
13	1315	31.500287903024	0
13	1331	32.001121348937	1
13	1331	32.001121348937	0
13	1344	32.501273241927	1
13	1344	32.501273241927	0
13	1360	33.000828679055	1
13	1360	33.000828679055	0
13	1373	33.501163499807	1
13	1373	33.501163499807	0
13	1390	34.001457848084	1
13	1390	34.001457848084	0
13	1403	34.501036660266	1
13	1403	34.501036660266	0
13	1419	35.000832301769	1
13	1419	35.000832301769	0
13	1432	35.49987251687	1
13	1432	35.49987251687	0
13	1445	35.999612133061	1
13	1445	35.999612133061	0
13	1461	36.49996776614	1
13	1461	36.49996776614	0
13	1478	37.000375240702	1
13	1478	37.000375240702	0
13	1491	37.501299617792	1
13	1491	37.501299617792	0
13	1507	38.001811831175	1
13	1507	38.001811831175	0
13	1520	38.501995915028	1
13	1520	38.501995915028	0
13	1536	39.002273757188	1
13	1536	39.002273757188	0
13	1550	39.503179255206	1
13	1550	39.503179255206	0
13	1566	40.00307765067	1
13	1566	40.00307765067	0
13	1579	40.503476609225	1
13	1579	40.503476609225	0
13	1595	41.00401065663	1
13	1595	41.00401065663	0
13	1608	41.503803668108	1
13	1608	41.503803668108	0
13	1625	42.003303260658	1
13	1625	42.003303260658	0
13	1638	42.504066731377	1
13	1638	42.504066731377	0
13	1654	43.004243661544	1
13	1654	43.004243661544	0
13	1667	43.50424631031	1
13	1667	43.50424631031	0
13	1683	44.003707376356	1
13	1683	44.003707376356	0
13	1696	44.503555086444	1
13	1696	44.503555086444	0
13	1713	45.003504821487	1
13	1713	45.003504821487	0
13	1726	45.503107971119	1
13	1726	45.503107971119	0
13	1742	46.002683953127	1
13	1742	46.002683953127	0
13	1755	46.502919983981	1
13	1755	46.502919983981	0
13	1771	47.003676888363	1
13	1771	47.003676888363	0
13	1784	47.503273453019	1
13	1784	47.503273453019	0
13	1801	48.002981546348	1
13	1801	48.002981546348	0
13	1814	48.50313019686	1
13	1814	48.50313019686	0
13	1830	49.004068120392	1
13	1830	49.004068120392	0
13	1843	49.503930957261	1
13	1843	49.503930957261	0
14	723	11.504830463352	540
14	739	12.004905209808	540
14	752	12.504948906464	540
14	769	13.004896107309	540
14	782	13.505444574682	540
14	799	14.004877675395	540
14	812	14.503915254991	540
14	828	15.003214604719	540
14	841	15.503448472716	540
14	857	16.004253669659	540
14	870	16.503972685463	540
14	887	17.004777382619	540
14	900	17.503897833552	540
14	916	18.004204113616	540
14	930	18.503624878739	540
14	946	19.004126251017	540
14	959	19.503853672564	540
14	976	20.002930523415	540
14	990	20.503907271079	540
14	1006	21.004212851717	540
14	1019	21.503535470739	540
14	1035	22.003699171403	540
14	1048	22.503631792949	540
14	1065	23.003878813161	540
14	1078	23.503099563439	540
14	1094	24.002733966929	540
14	1107	24.502127131642	540
14	1123	25.002452185378	540
14	1136	25.50164638792	540
14	1153	26.001993707182	540
14	1166	26.502946626112	540
14	1182	27.002965874856	540
14	1195	27.503175565892	540
14	1213	28.002215541237	540
14	1227	28.501781155156	540
14	1243	29.001500044094	540
14	1256	29.500737499523	540
14	1272	30.001498451309	540
14	1285	30.500626746311	540
14	1301	31.000757124042	540
14	1315	31.500287903024	540
14	1331	32.001121348937	540
14	1344	32.501273241927	540
14	1360	33.000828679055	540
14	1373	33.501163499807	540
14	1390	34.001457848084	540
14	1403	34.501036660266	540
14	1419	35.000832301769	540
14	1432	35.49987251687	540
14	1445	35.999612133061	540
14	1461	36.49996776614	540
14	1478	37.000375240702	540
14	1491	37.501299617792	540
14	1507	38.001811831175	540
14	1520	38.501995915028	540
14	1536	39.002273757188	540
14	1550	39.503179255206	540
14	1566	40.00307765067	540
14	1579	40.503476609225	540
14	1595	41.00401065663	540
14	1608	41.503803668108	540
14	1625	42.003303260658	540
14	1638	42.504066731377	540
14	1654	43.004243661544	540
14	1667	43.50424631031	540
14	1683	44.003707376356	540
14	1696	44.503555086444	540
14	1713	45.003504821487	540
14	1726	45.503107971119	540
14	1742	46.002683953127	540
14	1755	46.502919983981	540
14	1771	47.003676888363	540
14	1784	47.503273453019	540
14	1801	48.002981546348	540
14	1814	48.50313019686	540
14	1830	49.004068120392	540
14	1843	49.503930957261	540
15	723	11.504830463352	0
15	739	12.004905209808	0
15	752	12.504948906464	0
15	769	13.004896107309	0
15	782	13.505444574682	0
15	799	14.004877675395	0
15	812	14.503915254991	0
15	828	15.003214604719	0
15	841	15.503448472716	0
15	857	16.004253669659	0
15	870	16.503972685463	0
15	887	17.004777382619	0
15	900	17.503897833552	0
15	916	18.004204113616	0
15	930	18.503624878739	0
15	946	19.004126251017	0
15	959	19.503853672564	0
15	976	20.002930523415	0
15	990	20.503907271079	0
15	1006	21.004212851717	0
15	1019	21.503535470739	0
15	1035	22.003699171403	0
15	1048	22.503631792949	0
15	1065	23.003878813161	0
15	1078	23.503099563439	0
15	1094	24.002733966929	0
15	1107	24.502127131642	0
15	1123	25.002452185378	0
15	1136	25.50164638792	0
15	1153	26.001993707182	0
15	1166	26.502946626112	0
15	1182	27.002965874856	0
15	1195	27.503175565892	0
15	1213	28.002215541237	0
15	1227	28.501781155156	0
15	1243	29.001500044094	0
15	1256	29.500737499523	0
15	1272	30.001498451309	0
15	1285	30.500626746311	0
15	1301	31.000757124042	0
15	1315	31.500287903024	0
15	1331	32.001121348937	0
15	1344	32.501273241927	0
15	1360	33.000828679055	0
15	1373	33.501163499807	0
15	1390	34.001457848084	0
15	1403	34.501036660266	0
15	1419	35.000832301769	0
15	1432	35.49987251687	0
15	1445	35.999612133061	0
15	1461	36.49996776614	0
15	1478	37.000375240702	0
15	1491	37.501299617792	0
15	1507	38.001811831175	0
15	1520	38.501995915028	0
15	1536	39.002273757188	0
15	1550	39.503179255206	0
15	1566	40.00307765067	0
15	1579	40.503476609225	0
15	1595	41.00401065663	0
15	1608	41.503803668108	0
15	1625	42.003303260658	0
15	1638	42.504066731377	0
15	1654	43.004243661544	0
15	1667	43.50424631031	0
15	1683	44.003707376356	0
15	1696	44.503555086444	0
15	1713	45.003504821487	0
15	1726	45.503107971119	0
15	1742	46.002683953127	0
15	1755	46.502919983981	0
15	1771	47.003676888363	0
15	1784	47.503273453019	0
15	1801	48.002981546348	0
15	1814	48.50313019686	0
15	1830	49.004068120392	0
15	1843	49.503930957261	0
16	723	11.504830463352	563
16	739	12.004905209808	563
16	752	12.504948906464	563
16	769	13.004896107309	563
16	782	13.505444574682	563
16	799	14.004877675395	563
16	812	14.503915254991	563
16	828	15.003214604719	563
16	841	15.503448472716	563
16	857	16.004253669659	563
16	870	16.503972685463	563
16	887	17.004777382619	563
16	900	17.503897833552	563
16	916	18.004204113616	563
16	930	18.503624878739	563
16	946	19.004126251017	563
16	959	19.503853672564	563
16	976	20.002930523415	563
16	990	20.503907271079	563
16	1006	21.004212851717	563
16	1019	21.503535470739	563
16	1035	22.003699171403	563
16	1048	22.503631792949	563
16	1065	23.003878813161	563
16	1078	23.503099563439	563
16	1094	24.002733966929	563
16	1107	24.502127131642	563
16	1123	25.002452185378	563
16	1136	25.50164638792	563
16	1153	26.001993707182	563
16	1166	26.502946626112	563
16	1182	27.002965874856	563
16	1195	27.503175565892	563
16	1213	28.002215541237	563
16	1227	28.501781155156	563
16	1243	29.001500044094	563
16	1256	29.500737499523	563
16	1272	30.001498451309	563
16	1285	30.500626746311	563
16	1301	31.000757124042	563
16	1315	31.500287903024	563
16	1331	32.001121348937	563
16	1344	32.501273241927	563
16	1360	33.000828679055	563
16	1373	33.501163499807	563
16	1390	34.001457848084	563
16	1403	34.501036660266	563
16	1419	35.000832301769	563
16	1432	35.49987251687	563
16	1445	35.999612133061	563
16	1461	36.49996776614	563
16	1478	37.000375240702	563
16	1491	37.501299617792	563
16	1507	38.001811831175	563
16	1520	38.501995915028	563
16	1536	39.002273757188	563
16	1550	39.503179255206	563
16	1566	40.00307765067	563
16	1579	40.503476609225	563
16	1595	41.00401065663	563
16	1608	41.503803668108	563
16	1625	42.003303260658	563
16	1638	42.504066731377	563
16	1654	43.004243661544	563
16	1667	43.50424631031	563
16	1683	44.003707376356	563
16	1696	44.503555086444	563
16	1713	45.003504821487	563
16	1726	45.503107971119	563
16	1742	46.002683953127	563
16	1755	46.502919983981	563
16	1771	47.003676888363	563
16	1784	47.503273453019	563
16	1801	48.002981546348	563
16	1814	48.50313019686	563
16	1830	49.004068120392	563
16	1843	49.503930957261	563
17	729	11.507131025652	563
17	745	12.007205772108	563
17	759	12.507249468764	563
17	775	13.007196669609	563
17	788	13.507745136982	563
17	805	14.007178237695	563
17	818	14.506215817291	563
17	834	15.005515167019	563
17	847	15.505749035016	563
17	863	16.006554231959	563
17	877	16.506273247763	563
17	893	17.007077944919	563
17	906	17.506198395852	563
17	922	18.006504675916	563
17	936	18.505925441039	563
17	952	19.006426813317	563
17	966	19.506154234864	563
17	982	20.005231085715	563
17	996	20.506207833379	563
17	1012	21.006513414017	563
17	1025	21.505836033039	563
17	1041	22.005999733703	563
17	1055	22.505932355249	563
17	1071	23.006179375461	563
17	1084	23.505400125739	563
17	1100	24.005034529229	563
17	1113	24.504427693942	563
17	1129	25.004752747678	563
17	1143	25.50394695022	563
17	1159	26.004294269482	563
17	1172	26.505247188412	563
17	1188	27.005266437156	563
17	1201	27.505476128192	563
17	1219	28.004516103537	563
17	1233	28.504081717456	563
17	1249	29.003800606394	563
17	1262	29.503038061823	563
17	1278	30.003799013609	563
17	1291	30.502927308611	563
17	1308	31.003057686342	563
17	1321	31.502588465324	563
17	1337	32.003421911237	563
17	1350	32.503573804227	563
17	1366	33.003129241355	563
17	1379	33.503464062107	563
17	1396	34.003758410384	563
17	1409	34.503337222566	563
17	1425	35.003132864069	563
17	1438	35.50217307917	563
17	1454	36.001912695361	563
17	1468	36.50226832844	563
17	1484	37.002675803002	563
17	1497	37.503600180092	563
17	1513	38.004112393475	563
17	1526	38.504296477328	563
17	1542	39.004574319488	563
17	1556	39.505479817506	563
17	1572	40.00537821297	563
17	1585	40.505777171525	563
17	1601	41.00631121893	563
17	1614	41.506104230408	563
17	1631	42.005603822958	563
17	1644	42.506367293677	563
17	1660	43.006544223844	563
17	1673	43.50654687261	563
17	1689	44.006007938656	563
17	1703	44.505855648744	563
17	1719	45.005805383787	563
17	1732	45.505408533419	563
17	1748	46.004984515427	563
17	1761	46.505220546281	563
17	1777	47.005977450663	563
17	1791	47.505574015319	563
17	1807	48.005282108648	563
17	1820	48.50543075916	563
17	1836	49.006368682692	563
17	1849	49.506231519561	563
18	729	11.507131025652	540
18	745	12.007205772108	540
18	759	12.507249468764	540
18	775	13.007196669609	540
18	788	13.507745136982	540
18	805	14.007178237695	540
18	818	14.506215817291	540
18	834	15.005515167019	540
18	847	15.505749035016	540
18	863	16.006554231959	540
18	877	16.506273247763	540
18	893	17.007077944919	540
18	906	17.506198395852	540
18	922	18.006504675916	540
18	936	18.505925441039	540
18	952	19.006426813317	540
18	966	19.506154234864	540
18	982	20.005231085715	540
18	996	20.506207833379	540
18	1012	21.006513414017	540
18	1025	21.505836033039	540
18	1041	22.005999733703	540
18	1055	22.505932355249	540
18	1071	23.006179375461	540
18	1084	23.505400125739	540
18	1100	24.005034529229	540
18	1113	24.504427693942	540
18	1129	25.004752747678	540
18	1143	25.50394695022	540
18	1159	26.004294269482	540
18	1172	26.505247188412	540
18	1188	27.005266437156	540
18	1201	27.505476128192	540
18	1219	28.004516103537	540
18	1233	28.504081717456	540
18	1249	29.003800606394	540
18	1262	29.503038061823	540
18	1278	30.003799013609	540
18	1291	30.502927308611	540
18	1308	31.003057686342	540
18	1321	31.502588465324	540
18	1337	32.003421911237	540
18	1350	32.503573804227	540
18	1366	33.003129241355	540
18	1379	33.503464062107	540
18	1396	34.003758410384	540
18	1409	34.503337222566	540
18	1425	35.003132864069	540
18	1438	35.50217307917	540
18	1454	36.001912695361	540
18	1468	36.50226832844	540
18	1484	37.002675803002	540
18	1497	37.503600180092	540
18	1513	38.004112393475	540
18	1526	38.504296477328	540
18	1542	39.004574319488	540
18	1556	39.505479817506	540
18	1572	40.00537821297	540
18	1585	40.505777171525	540
18	1601	41.00631121893	540
18	1614	41.506104230408	540
18	1631	42.005603822958	540
18	1644	42.506367293677	540
18	1660	43.006544223844	540
18	1673	43.50654687261	540
18	1689	44.006007938656	540
18	1703	44.505855648744	540
18	1719	45.005805383787	540
18	1732	45.505408533419	540
18	1748	46.004984515427	540
18	1761	46.505220546281	540
18	1777	47.005977450663	540
18	1791	47.505574015319	540
18	1807	48.005282108648	540
18	1820	48.50543075916	540
18	1836	49.006368682692	540
18	1849	49.506231519561	540
53	730	11.507131025652	4
53	746	12.007205772108	5
53	760	12.507249468764	6
53	776	13.007196669609	7
53	789	13.507745136982	8
53	806	14.007178237695	9
53	819	14.506215817291	10
53	835	15.005515167019	11
53	848	15.505749035016	12
53	864	16.006554231959	13
53	878	16.506273247763	14
53	894	17.007077944919	15
53	907	17.506198395852	16
53	923	18.006504675916	17
53	937	18.505925441039	18
53	953	19.006426813317	19
53	967	19.506154234864	20
53	983	20.005231085715	21
53	997	20.506207833379	22
53	1013	21.006513414017	23
53	1026	21.505836033039	24
53	1042	22.005999733703	25
53	1056	22.505932355249	26
53	1072	23.006179375461	27
53	1085	23.505400125739	28
53	1101	24.005034529229	29
53	1114	24.504427693942	30
53	1130	25.004752747678	31
53	1144	25.50394695022	32
53	1160	26.004294269482	33
53	1173	26.505247188412	34
53	1189	27.005266437156	35
53	1202	27.505476128192	36
53	1220	28.004516103537	37
53	1234	28.504081717456	38
53	1250	29.003800606394	39
53	1263	29.503038061823	40
53	1279	30.003799013609	41
53	1292	30.502927308611	42
53	1309	31.003057686342	43
53	1322	31.502588465324	44
53	1338	32.003421911237	45
53	1351	32.503573804227	46
53	1367	33.003129241355	47
53	1380	33.503464062107	48
53	1397	34.003758410384	49
53	1410	34.503337222566	50
53	1426	35.003132864069	51
53	1439	35.50217307917	52
53	1455	36.001912695361	53
53	1469	36.50226832844	54
53	1485	37.002675803002	55
53	1498	37.503600180092	56
53	1514	38.004112393475	57
53	1527	38.504296477328	58
53	1543	39.004574319488	59
53	1557	39.505479817506	60
53	1573	40.00537821297	61
53	1586	40.505777171525	62
53	1602	41.00631121893	63
53	1615	41.506104230408	64
53	1632	42.005603822958	65
53	1645	42.506367293677	66
53	1661	43.006544223844	67
53	1674	43.50654687261	68
53	1690	44.006007938656	69
53	1704	44.505855648744	70
53	1720	45.005805383787	71
53	1733	45.505408533419	72
53	1749	46.004984515427	73
53	1762	46.505220546281	74
53	1778	47.005977450663	75
53	1792	47.505574015319	76
53	1808	48.005282108648	77
53	1821	48.50543075916	78
53	1837	49.006368682692	79
53	1850	49.506231519561	80
54	730	11.507131025652	4
54	746	12.007205772108	5
54	760	12.507249468764	6
54	776	13.007196669609	7
54	789	13.507745136982	8
54	806	14.007178237695	9
54	819	14.506215817291	10
54	835	15.005515167019	11
54	848	15.505749035016	12
54	864	16.006554231959	13
54	878	16.506273247763	14
54	894	17.007077944919	15
54	907	17.506198395852	16
54	923	18.006504675916	17
54	937	18.505925441039	18
54	953	19.006426813317	19
54	967	19.506154234864	20
54	983	20.005231085715	21
54	997	20.506207833379	22
54	1013	21.006513414017	23
54	1026	21.505836033039	24
54	1042	22.005999733703	25
54	1056	22.505932355249	26
54	1072	23.006179375461	27
54	1085	23.505400125739	28
54	1101	24.005034529229	29
54	1114	24.504427693942	30
54	1130	25.004752747678	31
54	1144	25.50394695022	32
54	1160	26.004294269482	33
54	1173	26.505247188412	34
54	1189	27.005266437156	35
54	1202	27.505476128192	36
54	1220	28.004516103537	37
54	1234	28.504081717456	38
54	1250	29.003800606394	39
54	1263	29.503038061823	40
54	1279	30.003799013609	41
54	1292	30.502927308611	42
54	1309	31.003057686342	43
54	1322	31.502588465324	44
54	1338	32.003421911237	45
54	1351	32.503573804227	46
54	1367	33.003129241355	47
54	1380	33.503464062107	48
54	1397	34.003758410384	49
54	1410	34.503337222566	50
54	1426	35.003132864069	51
54	1439	35.50217307917	52
54	1455	36.001912695361	53
54	1469	36.50226832844	54
54	1485	37.002675803002	55
54	1498	37.503600180092	56
54	1514	38.004112393475	57
54	1527	38.504296477328	58
54	1543	39.004574319488	59
54	1557	39.505479817506	60
54	1573	40.00537821297	61
54	1586	40.505777171525	62
54	1602	41.00631121893	63
54	1615	41.506104230408	64
54	1632	42.005603822958	65
54	1645	42.506367293677	66
54	1661	43.006544223844	67
54	1674	43.50654687261	68
54	1690	44.006007938656	69
54	1704	44.505855648744	70
54	1720	45.005805383787	71
54	1733	45.505408533419	72
54	1749	46.004984515427	73
54	1762	46.505220546281	74
54	1778	47.005977450663	75
54	1792	47.505574015319	76
54	1808	48.005282108648	77
54	1821	48.50543075916	78
54	1837	49.006368682692	79
54	1850	49.506231519561	80
4	1860	50.003213485067	2
4	1863	50.005513485067	1
4	1873	50.503085214906	2
4	1877	50.505385214906	1
4	1890	51.002605896763	2
4	1893	51.004905896763	1
4	1903	51.503013673934	2
4	1906	51.505313673934	1
4	1919	52.002212812104	2
4	1922	52.004512812104	1
4	1932	52.502641294701	2
4	1935	52.504941294701	1
4	1948	53.003323574961	2
4	1951	53.005623574961	1
4	1962	53.504059827082	2
4	1965	53.506359827082	1
4	1978	54.004076457983	2
4	1981	54.006376457983	1
4	1991	54.503324097948	2
4	1994	54.505624097948	1
4	2007	55.004053964534	2
4	2010	55.006353964534	1
4	2020	55.504192166023	2
4	2023	55.506492166023	1
4	2036	56.003258610796	2
4	2040	56.005558610796	1
4	2050	56.503653468341	2
4	2053	56.505953468341	1
4	2066	57.003493619076	2
4	2069	57.005793619076	1
4	2079	57.504226383728	2
4	2082	57.506526383728	1
4	2095	58.003259639667	2
4	2098	58.005559639667	1
4	2108	58.50228306783	2
4	2111	58.50458306783	1
4	2124	59.003171314871	2
4	2128	59.005471314871	1
4	2138	59.502514574226	2
4	2141	59.504814574226	1
7	1861	50.003214047367	3
7	1864	50.005514047367	1
7	1874	50.503085777206	3
7	1878	50.505385777206	1
7	1891	51.002606459063	3
7	1894	51.004906459063	1
7	1904	51.503014236234	3
7	1907	51.505314236234	1
7	1920	52.002213374404	3
7	1923	52.004513374404	1
7	1933	52.502641857001	3
7	1936	52.504941857001	1
7	1949	53.003324137261	3
7	1952	53.005624137261	1
7	1963	53.504060389382	3
7	1966	53.506360389382	1
7	1979	54.004077020283	3
7	1982	54.006377020283	1
7	1992	54.503324660248	3
7	1995	54.505624660248	1
7	2008	55.004054526834	3
7	2011	55.006354526834	1
7	2021	55.504192728323	3
7	2024	55.506492728323	1
7	2037	56.003259173096	3
7	2041	56.005559173096	1
7	2051	56.503654030641	3
7	2054	56.505954030641	1
7	2067	57.003494181376	3
7	2070	57.005794181376	1
7	2080	57.504226946028	3
7	2083	57.506526946028	1
7	2096	58.003260201967	3
7	2099	58.005560201967	1
7	2109	58.50228363013	3
7	2112	58.50458363013	1
7	2125	59.003171877171	3
7	2129	59.005471877171	1
7	2139	59.502515136526	3
7	2142	59.504815136526	1
9	1856	50.003213485067	512
9	1869	50.503085214906	512
9	1886	51.002605896763	512
9	1899	51.503013673934	512
9	1915	52.002212812104	512
9	1928	52.502641294701	512
9	1944	53.003323574961	512
9	1958	53.504059827082	512
9	1974	54.004076457983	512
9	1987	54.503324097948	512
9	2003	55.004053964534	512
9	2016	55.504192166023	512
9	2032	56.003258610796	512
9	2046	56.503653468341	512
9	2062	57.003493619076	512
9	2075	57.504226383728	512
9	2091	58.003259639667	512
9	2104	58.50228306783	512
9	2120	59.003171314871	512
9	2134	59.502514574226	512
10	1857	50.003213485067	520
10	1870	50.503085214906	520
10	1887	51.002605896763	520
10	1900	51.503013673934	520
10	1916	52.002212812104	520
10	1929	52.502641294701	520
10	1945	53.003323574961	520
10	1959	53.504059827082	520
10	1975	54.004076457983	520
10	1988	54.503324097948	520
10	2004	55.004053964534	520
10	2017	55.504192166023	520
10	2033	56.003258610796	520
10	2047	56.503653468341	520
10	2063	57.003493619076	520
10	2076	57.504226383728	520
10	2092	58.003259639667	520
10	2105	58.50228306783	520
10	2121	59.003171314871	520
10	2135	59.502514574226	520
11	1859	50.003213485067	540
11	1872	50.503085214906	540
11	1889	51.002605896763	540
11	1902	51.503013673934	540
11	1918	52.002212812104	540
11	1931	52.502641294701	540
11	1947	53.003323574961	540
11	1961	53.504059827082	540
11	1977	54.004076457983	540
11	1990	54.503324097948	540
11	2006	55.004053964534	540
11	2019	55.504192166023	540
11	2035	56.003258610796	540
11	2049	56.503653468341	540
11	2065	57.003493619076	540
11	2078	57.504226383728	540
11	2094	58.003259639667	540
11	2107	58.50228306783	540
11	2123	59.003171314871	540
11	2137	59.502514574226	540
12	1859	50.003213485067	540
12	1872	50.503085214906	540
12	1889	51.002605896763	540
12	1902	51.503013673934	540
12	1918	52.002212812104	540
12	1931	52.502641294701	540
12	1947	53.003323574961	540
12	1961	53.504059827082	540
12	1977	54.004076457983	540
12	1990	54.503324097948	540
12	2006	55.004053964534	540
12	2019	55.504192166023	540
12	2035	56.003258610796	540
12	2049	56.503653468341	540
12	2065	57.003493619076	540
12	2078	57.504226383728	540
12	2094	58.003259639667	540
12	2107	58.50228306783	540
12	2123	59.003171314871	540
12	2137	59.502514574226	540
13	1859	50.003213485067	1
13	1859	50.003213485067	0
13	1872	50.503085214906	1
13	1872	50.503085214906	0
13	1889	51.002605896763	1
13	1889	51.002605896763	0
13	1902	51.503013673934	1
13	1902	51.503013673934	0
13	1918	52.002212812104	1
13	1918	52.002212812104	0
13	1931	52.502641294701	1
13	1931	52.502641294701	0
13	1947	53.003323574961	1
13	1947	53.003323574961	0
13	1961	53.504059827082	1
13	1961	53.504059827082	0
13	1977	54.004076457983	1
13	1977	54.004076457983	0
13	1990	54.503324097948	1
13	1990	54.503324097948	0
13	2006	55.004053964534	1
13	2006	55.004053964534	0
13	2019	55.504192166023	1
13	2019	55.504192166023	0
13	2035	56.003258610796	1
13	2035	56.003258610796	0
13	2049	56.503653468341	1
13	2049	56.503653468341	0
13	2065	57.003493619076	1
13	2065	57.003493619076	0
13	2078	57.504226383728	1
13	2078	57.504226383728	0
13	2094	58.003259639667	1
13	2094	58.003259639667	0
13	2107	58.50228306783	1
13	2107	58.50228306783	0
13	2123	59.003171314871	1
13	2123	59.003171314871	0
13	2137	59.502514574226	1
13	2137	59.502514574226	0
14	1859	50.003213485067	540
14	1872	50.503085214906	540
14	1889	51.002605896763	540
14	1902	51.503013673934	540
14	1918	52.002212812104	540
14	1931	52.502641294701	540
14	1947	53.003323574961	540
14	1961	53.504059827082	540
14	1977	54.004076457983	540
14	1990	54.503324097948	540
14	2006	55.004053964534	540
14	2019	55.504192166023	540
14	2035	56.003258610796	540
14	2049	56.503653468341	540
14	2065	57.003493619076	540
14	2078	57.504226383728	540
14	2094	58.003259639667	540
14	2107	58.50228306783	540
14	2123	59.003171314871	540
14	2137	59.502514574226	540
15	1859	50.003213485067	0
15	1872	50.503085214906	0
15	1889	51.002605896763	0
15	1902	51.503013673934	0
15	1918	52.002212812104	0
15	1931	52.502641294701	0
15	1947	53.003323574961	0
15	1961	53.504059827082	0
15	1977	54.004076457983	0
15	1990	54.503324097948	0
15	2006	55.004053964534	0
15	2019	55.504192166023	0
15	2035	56.003258610796	0
15	2049	56.503653468341	0
15	2065	57.003493619076	0
15	2078	57.504226383728	0
15	2094	58.003259639667	0
15	2107	58.50228306783	0
15	2123	59.003171314871	0
15	2137	59.502514574226	0
16	1859	50.003213485067	563
16	1872	50.503085214906	563
16	1889	51.002605896763	563
16	1902	51.503013673934	563
16	1918	52.002212812104	563
16	1931	52.502641294701	563
16	1947	53.003323574961	563
16	1961	53.504059827082	563
16	1977	54.004076457983	563
16	1990	54.503324097948	563
16	2006	55.004053964534	563
16	2019	55.504192166023	563
16	2035	56.003258610796	563
16	2049	56.503653468341	563
16	2065	57.003493619076	563
16	2078	57.504226383728	563
16	2094	58.003259639667	563
16	2107	58.50228306783	563
16	2123	59.003171314871	563
16	2137	59.502514574226	563
17	1865	50.005514047367	563
17	1879	50.505385777206	563
17	1895	51.004906459063	563
17	1908	51.505314236234	563
17	1924	52.004513374404	563
17	1937	52.504941857001	563
17	1953	53.005624137261	563
17	1967	53.506360389382	563
17	1983	54.006377020283	563
17	1996	54.505624660248	563
17	2012	55.006354526834	563
17	2025	55.506492728323	563
17	2042	56.005559173096	563
17	2055	56.505954030641	563
17	2071	57.005794181376	563
17	2084	57.506526946028	563
17	2100	58.005560201967	563
17	2113	58.50458363013	563
17	2130	59.005471877171	563
17	2143	59.504815136526	563
18	1865	50.005514047367	540
18	1879	50.505385777206	540
18	1895	51.004906459063	540
18	1908	51.505314236234	540
18	1924	52.004513374404	540
18	1937	52.504941857001	540
18	1953	53.005624137261	540
18	1967	53.506360389382	540
18	1983	54.006377020283	540
18	1996	54.505624660248	540
18	2012	55.006354526834	540
18	2025	55.506492728323	540
18	2042	56.005559173096	540
18	2055	56.505954030641	540
18	2071	57.005794181376	540
18	2084	57.506526946028	540
18	2100	58.005560201967	540
18	2113	58.50458363013	540
18	2130	59.005471877171	540
18	2143	59.504815136526	540
53	1866	50.005514047367	81
53	1880	50.505385777206	82
53	1896	51.004906459063	83
53	1909	51.505314236234	84
53	1925	52.004513374404	85
53	1938	52.504941857001	86
53	1954	53.005624137261	87
53	1968	53.506360389382	88
53	1984	54.006377020283	89
53	1997	54.505624660248	90
53	2013	55.006354526834	91
53	2026	55.506492728323	92
53	2043	56.005559173096	93
53	2056	56.505954030641	94
53	2072	57.005794181376	95
53	2085	57.506526946028	96
53	2101	58.005560201967	97
53	2114	58.50458363013	98
53	2131	59.005471877171	99
53	2144	59.504815136526	100
54	1866	50.005514047367	81
54	1880	50.505385777206	82
54	1896	51.004906459063	83
54	1909	51.505314236234	84
54	1925	52.004513374404	85
54	1938	52.504941857001	86
54	1954	53.005624137261	87
54	1968	53.506360389382	88
54	1984	54.006377020283	89
54	1997	54.505624660248	90
54	2013	55.006354526834	91
54	2026	55.506492728323	92
[...]
56	7225	18.4	0
56	7225	18.5	0
56	7225	18.6	0
56	7225	18.7	0
56	7225	18.8	0
56	7225	18.9	0
56	7225	19	0
56	7225	19.1	0
56	7225	19.2	0
56	7225	19.3	0
56	7225	19.4	0
56	7225	19.5	0
56	7225	19.6	0
56	7225	19.7	0
56	7225	19.8	0
56	7225	19.9	0
56	7225	20	0
56	7225	20.1	0
56	7225	20.2	0
56	7225	20.3	0
56	7225	20.4	0
56	7225	20.5	0
56	7225	20.6	0
56	7225	20.7	0
56	7225	20.8	0
56	7225	20.9	0
56	7225	21	0
56	7225	21.1	0
56	7225	21.2	0
56	7225	21.3	0
56	7225	21.4	0
56	7225	21.5	0
56	7225	21.6	0
56	7225	21.7	0
56	7225	21.8	0
56	7225	21.9	0
56	7225	22	0
56	7225	22.1	0
56	7225	22.2	0
56	7225	22.3	0
56	7225	22.4	0
56	7225	22.5	0
56	7225	22.6	0
56	7225	22.7	0
56	7225	22.8	0
56	7225	22.9	0
56	7225	23	0
56	7225	23.1	0
56	7225	23.2	0
56	7225	23.3	0
56	7225	23.4	0
56	7225	23.5	0
56	7225	23.6	0
56	7225	23.7	0
56	7225	23.8	0
56	7225	23.9	0
56	7225	24	0
56	7225	24.1	0
56	7225	24.2	0
56	7225	24.3	0
56	7225	24.4	0
56	7225	24.5	0
56	7225	24.6	0
56	7225	24.7	0
56	7225	24.8	0
56	7225	24.9	0
56	7225	25	0
56	7225	25.1	0
56	7225	25.2	0
56	7225	25.3	0
56	7225	25.4	0
56	7225	25.5	0
56	7225	25.6	0
56	7225	25.7	0
56	7225	25.8	0
56	7225	25.9	0
56	7225	26	0
56	7225	26.1	0
56	7225	26.2	0
56	7225	26.3	0
56	7225	26.4	0
56	7225	26.5	0
56	7225	26.6	0
56	7225	26.7	0
56	7225	26.8	0
56	7225	26.9	0
56	7225	27	0
56	7225	27.1	0
56	7225	27.2	0
56	7225	27.3	0
56	7225	27.4	0
56	7225	27.5	0
56	7225	27.6	0
56	7225	27.7	0
56	7225	27.8	0
56	7225	27.9	0
56	7225	28	0
56	7225	28.1	0
56	7225	28.2	0
56	7225	28.3	0
56	7225	28.4	0
56	7225	28.5	0
56	7225	28.6	0
56	7225	28.7	0
56	7225	28.8	0
56	7225	28.9	0
56	7225	29	0
56	7225	29.1	0
56	7225	29.2	0
56	7225	29.3	0
56	7225	29.4	0
56	7225	29.5	0
56	7225	29.6	0
56	7225	29.7	0
56	7225	29.8	0
56	7225	29.9	0
56	7225	30	0
56	7225	30.1	0
56	7225	30.2	0
56	7225	30.3	0
56	7225	30.4	0
56	7225	30.5	0
56	7225	30.6	0
56	7225	30.7	0
56	7225	30.8	0
56	7225	30.9	0
56	7225	31	0
56	7225	31.1	0
56	7225	31.2	0
56	7225	31.3	0
56	7225	31.4	0
56	7225	31.5	0
56	7225	31.6	0
56	7225	31.7	0
56	7225	31.8	0
56	7225	31.9	0
56	7225	32	0
56	7225	32.1	0
56	7225	32.2	0
56	7225	32.3	0
56	7225	32.4	0
56	7225	32.5	0
56	7225	32.6	0
56	7225	32.7	0
56	7225	32.8	0
56	7225	32.9	0
56	7225	33	0
56	7225	33.1	0
56	7225	33.2	0
56	7225	33.3	0
56	7225	33.4	0
56	7225	33.5	0
56	7225	33.6	0
56	7225	33.7	0
56	7225	33.8	0
56	7225	33.9	0
56	7225	34	0
56	7225	34.1	0
56	7225	34.2	0
56	7225	34.3	0
56	7225	34.4	0
56	7225	34.5	0
56	7225	34.6	0
56	7225	34.7	0
56	7225	34.8	0
56	7225	34.9	0
56	7225	35	0
56	7225	35.1	0
56	7225	35.2	0
56	7225	35.3	0
56	7225	35.4	0
56	7225	35.5	0
56	7225	35.6	0
56	7225	35.7	0
56	7225	35.8	0
56	7225	35.9	0
56	7225	36	0
56	7225	36.1	0
56	7225	36.2	0
56	7225	36.3	0
56	7225	36.4	0
56	7225	36.5	0
56	7225	36.6	0
56	7225	36.7	0
56	7225	36.8	0
56	7225	36.9	0
56	7225	37	0
56	7225	37.1	0
56	7225	37.2	0
56	7225	37.3	0
56	7225	37.4	0
56	7225	37.5	0
56	7225	37.6	0
56	7225	37.7	0
56	7225	37.8	0
56	7225	37.9	0
56	7225	38	0
56	7225	38.1	0
56	7225	38.2	0
56	7225	38.3	0
56	7225	38.4	0
56	7225	38.5	0
56	7225	38.6	0
56	7225	38.7	0
56	7225	38.8	0
56	7225	38.9	0
56	7225	39	0
56	7225	39.1	0
56	7225	39.2	0
56	7225	39.3	0
56	7225	39.4	0
56	7225	39.5	0
56	7225	39.6	0
56	7225	39.7	0
56	7225	39.8	0
56	7225	39.9	0
56	7225	40	0
56	7225	40.1	0
56	7225	40.2	0
56	7225	40.3	0
56	7225	40.4	0
56	7225	40.5	0
56	7225	40.6	0
56	7225	40.7	0
56	7225	40.8	0
56	7225	40.9	0
56	7225	41	0
56	7225	41.1	0
56	7225	41.2	0
56	7225	41.3	0
56	7225	41.4	0
56	7225	41.5	0
56	7225	41.6	0
56	7225	41.7	0
56	7225	41.8	0
56	7225	41.9	0
56	7225	42	0
56	7225	42.1	0
56	7225	42.2	0
56	7225	42.3	0
56	7225	42.4	0
56	7225	42.5	0
56	7225	42.6	0
56	7225	42.7	0
56	7225	42.8	0
56	7225	42.9	0
56	7225	43	0
56	7225	43.1	0
56	7225	43.2	0
56	7225	43.3	0
56	7225	43.4	0
56	7225	43.5	0
56	7225	43.6	0
56	7225	43.7	0
56	7225	43.8	0
56	7225	43.9	0
56	7225	44	0
56	7225	44.1	0
56	7225	44.2	0
56	7225	44.3	0
56	7225	44.4	0
56	7225	44.5	0
56	7225	44.6	0
56	7225	44.7	0
56	7225	44.8	0
56	7225	44.9	0
56	7225	45	0
56	7225	45.1	0
56	7225	45.2	0
56	7225	45.3	0
56	7225	45.4	0
56	7225	45.5	0
56	7225	45.6	0
56	7225	45.7	0
56	7225	45.8	0
56	7225	45.9	0
56	7225	46	0
56	7225	46.1	0
56	7225	46.2	0
56	7225	46.3	0
56	7225	46.4	0
56	7225	46.5	0
56	7225	46.6	0
56	7225	46.7	0
56	7225	46.8	0
56	7225	46.9	0
56	7225	47	0
56	7225	47.1	0
56	7225	47.2	0
56	7225	47.3	0
56	7225	47.4	0
56	7225	47.5	0
56	7225	47.6	0
56	7225	47.7	0
56	7225	47.8	0
56	7225	47.9	0
56	7225	48	0
56	7225	48.1	0
56	7225	48.2	0
56	7225	48.3	0
56	7225	48.4	0
56	7225	48.5	0
56	7225	48.6	0
56	7225	48.7	0
56	7225	48.8	0
56	7225	48.9	0
56	7225	49	0
56	7225	49.1	0
56	7225	49.2	0
56	7225	49.3	0
56	7225	49.4	0
56	7225	49.5	0
56	7225	49.6	0
56	7225	49.7	0
56	7225	49.8	0
56	7225	49.9	0
56	7225	50	0
56	7225	50.1	0
56	7225	50.2	0
56	7225	50.3	0
56	7225	50.4	0
56	7225	50.5	0
56	7225	50.6	0
56	7225	50.7	0
56	7225	50.8	0
56	7225	50.9	0
56	7225	51	0
56	7225	51.1	0
56	7225	51.2	0
56	7225	51.3	0
56	7225	51.4	0
56	7225	51.5	0
56	7225	51.6	0
56	7225	51.7	0
56	7225	51.8	0
56	7225	51.9	0
56	7225	52	0
56	7225	52.1	0
56	7225	52.2	0
56	7225	52.3	0
56	7225	52.4	0
56	7225	52.5	0
56	7225	52.6	0
56	7225	52.7	0
56	7225	52.8	0
56	7225	52.9	0
56	7225	53	0
56	7225	53.1	0
56	7225	53.2	0
56	7225	53.3	0
56	7225	53.4	0
56	7225	53.5	0
56	7225	53.6	0
56	7225	53.7	0
56	7225	53.8	0
56	7225	53.9	0
56	7225	54	0
56	7225	54.1	0
56	7225	54.2	0
56	7225	54.3	0
56	7225	54.4	0
56	7225	54.5	0
56	7225	54.6	0
56	7225	54.7	0
56	7225	54.8	0
56	7225	54.9	0
56	7225	55	0
56	7225	55.1	0
56	7225	55.2	0
56	7225	55.3	0
56	7225	55.4	0
56	7225	55.5	0
56	7225	55.6	0
56	7225	55.7	0
56	7225	55.8	0
56	7225	55.9	0
56	7225	56	0
56	7225	56.1	0
56	7225	56.2	0
56	7225	56.3	0
56	7225	56.4	0
56	7225	56.5	0
56	7225	56.6	0
56	7225	56.7	0
56	7225	56.8	0
56	7225	56.9	0
56	7225	57	0
56	7225	57.1	0
56	7225	57.2	0
56	7225	57.3	0
56	7225	57.4	0
56	7225	57.5	0
56	7225	57.6	0
56	7225	57.7	0
56	7225	57.8	0
56	7225	57.9	0
56	7225	58	0
56	7225	58.1	0
56	7225	58.2	0
56	7225	58.3	0
56	7225	58.4	0
56	7225	58.5	0
56	7225	58.6	0
56	7225	58.7	0
56	7225	58.8	0
56	7225	58.9	0
56	7225	59	0
56	7225	59.1	0
56	7225	59.2	0
56	7225	59.3	0
56	7225	59.4	0
56	7225	59.5	0
56	7225	59.6	0
56	7225	59.7	0
56	7225	59.8	0
56	7225	59.9	0
56	7225	60	0
56	7225	60.1	0
56	7225	60.2	0
56	7225	60.3	0
56	7225	60.4	0
56	7225	60.5	0
56	7225	60.6	0
56	7225	60.7	0
56	7225	60.8	0
56	7225	60.9	0
56	7225	61	0
56	7225	61.1	0
56	7225	61.2	0
56	7225	61.3	0
56	7225	61.4	0
56	7225	61.5	0
56	7225	61.6	0
56	7225	61.7	0
56	7225	61.8	0
56	7225	61.9	0
56	7225	62	0
56	7225	62.1	0
56	7225	62.2	0
56	7225	62.3	0
56	7225	62.4	0
56	7225	62.5	0
56	7225	62.6	0
56	7225	62.7	0
56	7225	62.8	0
56	7225	62.9	0
56	7225	63	0
56	7225	63.1	0
56	7225	63.2	0
56	7225	63.3	0
56	7225	63.4	0
56	7225	63.5	0
56	7225	63.6	0
56	7225	63.7	0
56	7225	63.8	0
56	7225	63.9	0
56	7225	64	0
56	7225	64.1	0
56	7225	64.2	0
56	7225	64.3	0
56	7225	64.4	0
56	7225	64.5	0
56	7225	64.6	0
56	7225	64.7	0
56	7225	64.8	0
56	7225	64.9	0
56	7225	65	0
56	7225	65.1	0
56	7225	65.2	0
56	7225	65.3	0
56	7225	65.4	0
56	7225	65.5	0
56	7225	65.6	0
56	7225	65.7	0
56	7225	65.8	0
56	7225	65.9	0
56	7225	66	0
56	7225	66.1	0
56	7225	66.2	0
56	7225	66.3	0
56	7225	66.4	0
56	7225	66.5	0
56	7225	66.6	0
56	7225	66.7	0
56	7225	66.8	0
56	7225	66.9	0
56	7225	67	0
56	7225	67.1	0
56	7225	67.2	0
56	7225	67.3	0
56	7225	67.4	0
56	7225	67.5	0
56	7225	67.6	0
56	7225	67.7	0
56	7225	67.8	0
56	7225	67.9	0
56	7225	68	0
56	7225	68.1	0
56	7225	68.2	0
56	7225	68.3	0
56	7225	68.4	0
56	7225	68.5	0
56	7225	68.6	0
56	7225	68.7	0
56	7225	68.8	0
56	7225	68.9	0
56	7225	69	0
56	7225	69.1	0
56	7225	69.2	0
56	7225	69.3	0
56	7225	69.4	0
56	7225	69.5	0
56	7225	69.6	0
56	7225	69.7	0
56	7225	69.8	0
56	7225	69.9	0
56	7225	70	0
56	7225	70.1	0
56	7225	70.2	0
56	7225	70.3	0
56	7225	70.4	0
56	7225	70.5	0
56	7225	70.6	0
56	7225	70.7	0
56	7225	70.8	0
56	7225	70.9	0
56	7225	71	0
56	7225	71.1	0
56	7225	71.2	0
56	7225	71.3	0
56	7225	71.4	0
56	7225	71.5	0
56	7225	71.6	0
56	7225	71.7	0
56	7225	71.8	0
56	7225	71.9	0
56	7225	72	0
56	7225	72.1	0
56	7225	72.2	0
56	7225	72.3	0
56	7225	72.4	0
56	7225	72.5	0
56	7225	72.6	0
56	7225	72.7	0
56	7225	72.8	0
56	7225	72.9	0
56	7225	73	0
56	7225	73.1	0
56	7225	73.2	0
56	7225	73.3	0
56	7225	73.4	0
56	7225	73.5	0
56	7225	73.6	0
56	7225	73.7	0
56	7225	73.8	0
56	7225	73.9	0
56	7225	74	0
56	7225	74.1	0
56	7225	74.2	0
56	7225	74.3	0
56	7225	74.4	0
56	7225	74.5	0
56	7225	74.6	0
56	7225	74.7	0
56	7225	74.8	0
56	7225	74.9	0
56	7225	75	0
56	7225	75.1	0
56	7225	75.2	0
56	7225	75.3	0
56	7225	75.4	0
56	7225	75.5	0
56	7225	75.6	0
56	7225	75.7	0
56	7225	75.8	0
56	7225	75.9	0
56	7225	76	0
56	7225	76.1	0
56	7225	76.2	0
56	7225	76.3	0
56	7225	76.4	0
56	7225	76.5	0
56	7225	76.6	0
56	7225	76.7	0
56	7225	76.8	0
56	7225	76.9	0
56	7225	77	0
56	7225	77.1	0
56	7225	77.2	0
56	7225	77.3	0
56	7225	77.4	0
56	7225	77.5	0
56	7225	77.6	0
56	7225	77.7	0
56	7225	77.8	0
56	7225	77.9	0
56	7225	78	0
56	7225	78.1	0
56	7225	78.2	0
56	7225	78.3	0
56	7225	78.4	0
56	7225	78.5	0
56	7225	78.6	0
56	7225	78.7	0
56	7225	78.8	0
56	7225	78.9	0
56	7225	79	0
56	7225	79.1	0
56	7225	79.2	0
56	7225	79.3	0
56	7225	79.4	0
56	7225	79.5	0
56	7225	79.6	0
56	7225	79.7	0
56	7225	79.8	0
56	7225	79.9	0
56	7225	80	0
56	7225	80.1	0
56	7225	80.2	0
56	7225	80.3	0
56	7225	80.4	0
56	7225	80.5	0
56	7225	80.6	0
56	7225	80.7	0
56	7225	80.8	0
56	7225	80.9	0
56	7225	81	0
56	7225	81.1	0
56	7225	81.2	0
56	7225	81.3	0
56	7225	81.4	0
56	7225	81.5	0
56	7225	81.6	0
56	7225	81.7	0
56	7225	81.8	0
56	7225	81.9	0
56	7225	82	0
56	7225	82.1	0
56	7225	82.2	0
56	7225	82.3	0
56	7225	82.4	0
56	7225	82.5	0
56	7225	82.6	0
56	7225	82.7	0
56	7225	82.8	0
56	7225	82.9	0
56	7225	83	0
56	7225	83.1	0
56	7225	83.2	0
56	7225	83.3	0
56	7225	83.4	0
56	7225	83.5	0
56	7225	83.6	0
56	7225	83.7	0
56	7225	83.8	0
56	7225	83.9	0
56	7225	84	0
56	7225	84.1	0
56	7225	84.2	0
56	7225	84.3	0
56	7225	84.4	0
56	7225	84.5	0
56	7225	84.6	0
56	7225	84.7	0
56	7225	84.8	0
56	7225	84.9	0
56	7225	85	0
56	7225	85.1	0
56	7225	85.2	0
56	7225	85.3	0
56	7225	85.4	0
56	7225	85.5	0
56	7225	85.6	0
56	7225	85.7	0
56	7225	85.8	0
56	7225	85.9	0
56	7225	86	0
56	7225	86.1	0
56	7225	86.2	0
56	7225	86.3	0
56	7225	86.4	0
56	7225	86.5	0
56	7225	86.6	0
56	7225	86.7	0
56	7225	86.8	0
56	7225	86.9	0
56	7225	87	0
56	7225	87.1	0
56	7225	87.2	0
56	7225	87.3	0
56	7225	87.4	0
56	7225	87.5	0
56	7225	87.6	0
56	7225	87.7	0
56	7225	87.8	0
56	7225	87.9	0
56	7225	88	0
56	7225	88.1	0
56	7225	88.2	0
56	7225	88.3	0
56	7225	88.4	0
56	7225	88.5	0
56	7225	88.6	0
56	7225	88.7	0
56	7225	88.8	0
56	7225	88.9	0
56	7225	89	0
56	7225	89.1	0
56	7225	89.2	0
56	7225	89.3	0
56	7225	89.4	0
56	7225	89.5	0
56	7225	89.6	0
56	7225	89.7	0
56	7225	89.8	0
56	7225	89.9	0
56	7225	90	0
56	7225	90.1	0
56	7225	90.2	0
56	7225	90.3	0
56	7225	90.4	0
56	7225	90.5	0
56	7225	90.6	0
56	7225	90.7	0
56	7225	90.8	0
56	7225	90.9	0
56	7225	91	0
56	7225	91.1	0
56	7225	91.2	0
56	7225	91.3	0
56	7225	91.4	0
56	7225	91.5	0
56	7225	91.6	0
56	7225	91.7	0
56	7225	91.8	0
56	7225	91.9	0
56	7225	92	0
56	7225	92.1	0
56	7225	92.2	0
56	7225	92.3	0
56	7225	92.4	0
56	7225	92.5	0
56	7225	92.6	0
56	7225	92.7	0
56	7225	92.8	0
56	7225	92.9	0
56	7225	93	0
56	7225	93.1	0
56	7225	93.2	0
56	7225	93.3	0
56	7225	93.4	0
56	7225	93.5	0
56	7225	93.6	0
56	7225	93.7	0
56	7225	93.8	0
56	7225	93.9	0
56	7225	94	0
56	7225	94.1	0
56	7225	94.2	0
56	7225	94.3	0
56	7225	94.4	0
56	7225	94.5	0
56	7225	94.6	0
56	7225	94.7	0
56	7225	94.8	0
56	7225	94.9	0
56	7225	95	0
56	7225	95.1	0
56	7225	95.2	0
56	7225	95.3	0
56	7225	95.4	0
56	7225	95.5	0
56	7225	95.6	0
56	7225	95.7	0
56	7225	95.8	0
56	7225	95.9	0
56	7225	96	0
56	7225	96.1	0
56	7225	96.2	0
56	7225	96.3	0
56	7225	96.4	0
56	7225	96.5	0
56	7225	96.6	0
56	7225	96.7	0
56	7225	96.8	0
56	7225	96.9	0
56	7225	97	0
56	7225	97.1	0
56	7225	97.2	0
56	7225	97.3	0
56	7225	97.4	0
56	7225	97.5	0
56	7225	97.6	0
56	7225	97.7	0
56	7225	97.8	0
56	7225	97.9	0
56	7225	98	0
56	7225	98.1	0
56	7225	98.2	0
56	7225	98.3	0
56	7225	98.4	0
56	7225	98.5	0
56	7225	98.6	0
56	7225	98.7	0
56	7225	98.8	0
56	7225	98.9	0
56	7225	99	0
56	7225	99.1	0
56	7225	99.2	0
56	7225	99.3	0
56	7225	99.4	0
56	7225	99.5	0
56	7225	99.6	0
56	7225	99.7	0
56	7225	99.8	0
56	7225	99.9	0
56	7225	100	0
56	7225	100.1	0
56	7225	100.2	0
56	7225	100.3	0
56	7225	100.4	0
56	7225	100.5	0
56	7225	100.6	0
56	7225	100.7	0
56	7225	100.8	0
56	7225	100.9	0
56	7225	101	0
56	7225	101.1	0
56	7225	101.2	0
56	7225	101.3	0
56	7225	101.4	0
56	7225	101.5	0
56	7225	101.6	0
56	7225	101.7	0
56	7225	101.8	0
56	7225	101.9	0
56	7225	102	0
56	7225	102.1	0
56	7225	102.2	0
56	7225	102.3	0
56	7225	102.4	0
56	7225	102.5	0
56	7225	102.6	0
56	7225	102.7	0
56	7225	102.8	0
56	7225	102.9	0
56	7225	103	0
56	7225	103.1	0
56	7225	103.2	0
56	7225	103.3	0
56	7225	103.4	0
56	7225	103.5	0
56	7225	103.6	0
56	7225	103.7	0
56	7225	103.8	0
56	7225	103.9	0
56	7225	104	0
56	7225	104.1	0
56	7225	104.2	0
56	7225	104.3	0
56	7225	104.4	0
56	7225	104.5	0
56	7225	104.6	0
56	7225	104.7	0
56	7225	104.8	0
56	7225	104.9	0
56	7225	105	0
56	7225	105.1	0
56	7225	105.2	0
56	7225	105.3	0
56	7225	105.4	0
56	7225	105.5	0
56	7225	105.6	0
56	7225	105.7	0
56	7225	105.8	0
56	7225	105.9	0
56	7225	106	0
56	7225	106.1	0
56	7225	106.2	0
56	7225	106.3	0
56	7225	106.4	0
56	7225	106.5	0
56	7225	106.6	0
56	7225	106.7	0
56	7225	106.8	0
56	7225	106.9	0
56	7225	107	0
56	7225	107.1	0
56	7225	107.2	0
56	7225	107.3	0
56	7225	107.4	0
56	7225	107.5	0
56	7225	107.6	0
56	7225	107.7	0
56	7225	107.8	0
56	7225	107.9	0
56	7225	108	0
56	7225	108.1	0
56	7225	108.2	0
56	7225	108.3	0
56	7225	108.4	0
56	7225	108.5	0
56	7225	108.6	0
56	7225	108.7	0
56	7225	108.8	0
56	7225	108.9	0
56	7225	109	0
56	7225	109.1	0
56	7225	109.2	0
56	7225	109.3	0
56	7225	109.4	0
56	7225	109.5	0
56	7225	109.6	0
56	7225	109.7	0
56	7225	109.8	0
56	7225	109.9	0
56	7225	110	0
56	7225	110.1	0
56	7225	110.2	0
56	7225	110.3	0
56	7225	110.4	0
56	7225	110.5	0
56	7225	110.6	0
56	7225	110.7	0
56	7225	110.8	0
56	7225	110.9	0
56	7225	111	0
56	7225	111.1	0
56	7225	111.2	0
56	7225	111.3	0
56	7225	111.4	0
56	7225	111.5	0
56	7225	111.6	0
56	7225	111.7	0
56	7225	111.8	0
56	7225	111.9	0
56	7225	112	0
56	7225	112.1	0
56	7225	112.2	0
56	7225	112.3	0
56	7225	112.4	0
56	7225	112.5	0
56	7225	112.6	0
56	7225	112.7	0
56	7225	112.8	0
56	7225	112.9	0
56	7225	113	0
56	7225	113.1	0
56	7225	113.2	0
56	7225	113.3	0
56	7225	113.4	0
56	7225	113.5	0
56	7225	113.6	0
56	7225	113.7	0
56	7225	113.8	0
56	7225	113.9	0
56	7225	114	0
56	7225	114.1	0
56	7225	114.2	0
56	7225	114.3	0
56	7225	114.4	0
56	7225	114.5	0
56	7225	114.6	0
56	7225	114.7	0
56	7225	114.8	0
56	7225	114.9	0
56	7225	115	0
56	7225	115.1	0
56	7225	115.2	0
56	7225	115.3	0
56	7225	115.4	0
56	7225	115.5	0
56	7225	115.6	0
56	7225	115.7	0
56	7225	115.8	0
56	7225	115.9	0
56	7225	116	0
56	7225	116.1	0
56	7225	116.2	0
56	7225	116.3	0
56	7225	116.4	0
56	7225	116.5	0
56	7225	116.6	0
56	7225	116.7	0
56	7225	116.8	0
56	7225	116.9	0
56	7225	117	0
56	7225	117.1	0
56	7225	117.2	0
56	7225	117.3	0
56	7225	117.4	0
56	7225	117.5	0
56	7225	117.6	0
56	7225	117.7	0
56	7225	117.8	0
56	7225	117.9	0
56	7225	118	0
56	7225	118.1	0
56	7225	118.2	0
56	7225	118.3	0
56	7225	118.4	0
56	7225	118.5	0
56	7225	118.6	0
56	7225	118.7	0
56	7225	118.8	0
56	7225	118.9	0
56	7225	119	0
56	7225	119.1	0
56	7225	119.2	0
56	7225	119.3	0
56	7225	119.4	0
56	7225	119.5	0
56	7225	119.6	0
56	7225	119.7	0
56	7225	119.8	0
56	7225	119.9	0
56	7225	120	0
56	7225	120.1	0
56	7225	120.2	0
56	7225	120.3	0
56	7225	120.4	0
56	7225	120.5	0
56	7225	120.6	0
56	7225	120.7	0
56	7225	120.8	0
56	7225	120.9	0
56	7225	121	0
56	7225	121.1	0
56	7225	121.2	0
56	7225	121.3	0
56	7225	121.4	0
56	7225	121.5	0
56	7225	121.6	0
56	7225	121.7	0
56	7225	121.8	0
56	7225	121.9	0
56	7225	122	0
56	7225	122.1	0
56	7225	122.2	0
56	7225	122.3	0
56	7225	122.4	0
56	7225	122.5	0
56	7225	122.6	0
56	7225	122.7	0
56	7225	122.8	0
56	7225	122.9	0
56	7225	123	0
56	7225	123.1	0
56	7225	123.2	0
56	7225	123.3	0
56	7225	123.4	0
56	7225	123.5	0
56	7225	123.6	0
56	7225	123.7	0
56	7225	123.8	0
56	7225	123.9	0
56	7225	124	0
56	7225	124.1	0
56	7225	124.2	0
56	7225	124.3	0
56	7225	124.4	0
56	7225	124.5	0
56	7225	124.6	0
56	7225	124.7	0
56	7225	124.8	0
56	7225	124.9	0
56	7225	125	0
56	7225	125.1	0
56	7225	125.2	0
56	7225	125.3	0
56	7225	125.4	0
56	7225	125.5	0
56	7225	125.6	0
56	7225	125.7	0
56	7225	125.8	0
56	7225	125.9	0
56	7225	126	0
56	7225	126.1	0
56	7225	126.2	0
56	7225	126.3	0
56	7225	126.4	0
56	7225	126.5	0
56	7225	126.6	0
56	7225	126.7	0
56	7225	126.8	0
56	7225	126.9	0
56	7225	127	0
56	7225	127.1	0
56	7225	127.2	0
56	7225	127.3	0
56	7225	127.4	0
56	7225	127.5	0
56	7225	127.6	0
56	7225	127.7	0
56	7225	127.8	0
56	7225	127.9	0
56	7225	128	0
56	7225	128.1	0
56	7225	128.2	0
56	7225	128.3	0
56	7225	128.4	0
56	7225	128.5	0
56	7225	128.6	0
56	7225	128.7	0
56	7225	128.8	0
56	7225	128.9	0
56	7225	129	0
56	7225	129.1	0
56	7225	129.2	0
56	7225	129.3	0
56	7225	129.4	0
56	7225	129.5	0
56	7225	129.6	0
56	7225	129.7	0
56	7225	129.8	0
56	7225	129.9	0
56	7225	130	0
56	7225	130.1	0
56	7225	130.2	0
56	7225	130.3	0
56	7225	130.4	0
56	7225	130.5	0
56	7225	130.6	0
56	7225	130.7	0
56	7225	130.8	0
56	7225	130.9	0
56	7225	131	0
56	7225	131.1	0
56	7225	131.2	0
56	7225	131.3	0
56	7225	131.4	0
56	7225	131.5	0
56	7225	131.6	0
56	7225	131.7	0
56	7225	131.8	0
56	7225	131.9	0
56	7225	132	0
56	7225	132.1	0
56	7225	132.2	0
56	7225	132.3	0
56	7225	132.4	0
56	7225	132.5	0
56	7225	132.6	0
56	7225	132.7	0
56	7225	132.8	0
56	7225	132.9	0
56	7225	133	0
56	7225	133.1	0
56	7225	133.2	0
56	7225	133.3	0
56	7225	133.4	0
56	7225	133.5	0
56	7225	133.6	0
56	7225	133.7	0
56	7225	133.8	0
56	7225	133.9	0
56	7225	134	0
56	7225	134.1	0
56	7225	134.2	0
56	7225	134.3	0
56	7225	134.4	0
56	7225	134.5	0
56	7225	134.6	0
56	7225	134.7	0
56	7225	134.8	0
56	7225	134.9	0
56	7225	135	0
56	7225	135.1	0
56	7225	135.2	0
56	7225	135.3	0
56	7225	135.4	0
56	7225	135.5	0
56	7225	135.6	0
56	7225	135.7	0
56	7225	135.8	0
56	7225	135.9	0
56	7225	136	0
56	7225	136.1	0
56	7225	136.2	0
56	7225	136.3	0
56	7225	136.4	0
56	7225	136.5	0
56	7225	136.6	0
56	7225	136.7	0
56	7225	136.8	0
56	7225	136.9	0
56	7225	137	0
56	7225	137.1	0
56	7225	137.2	0
56	7225	137.3	0
56	7225	137.4	0
56	7225	137.5	0
56	7225	137.6	0
56	7225	137.7	0
56	7225	137.8	0
56	7225	137.9	0
56	7225	138	0
56	7225	138.1	0
56	7225	138.2	0
56	7225	138.3	0
56	7225	138.4	0
56	7225	138.5	0
56	7225	138.6	0
56	7225	138.7	0
56	7225	138.8	0
56	7225	138.9	0
56	7225	139	0
56	7225	139.1	0
56	7225	139.2	0
56	7225	139.3	0
56	7225	139.4	0
56	7225	139.5	0
56	7225	139.6	0
56	7225	139.7	0
56	7225	139.8	0
56	7225	139.9	0
56	7225	140	0
56	7225	140.1	0
56	7225	140.2	0
56	7225	140.3	0
56	7225	140.4	0
56	7225	140.5	0
56	7225	140.6	0
56	7225	140.7	0
56	7225	140.8	0
56	7225	140.9	0
56	7225	141	0
56	7225	141.1	0
56	7225	141.2	0
56	7225	141.3	0
56	7225	141.4	0
56	7225	141.5	0
56	7225	141.6	0
56	7225	141.7	0
56	7225	141.8	0
56	7225	141.9	0
56	7225	142	0
56	7225	142.1	0
56	7225	142.2	0
56	7225	142.3	0
56	7225	142.4	0
56	7225	142.5	0
56	7225	142.6	0
56	7225	142.7	0
56	7225	142.8	0
56	7225	142.9	0
56	7225	143	0
56	7225	143.1	0
56	7225	143.2	0
56	7225	143.3	0
56	7225	143.4	0
56	7225	143.5	0
56	7225	143.6	0
56	7225	143.7	0
56	7225	143.8	0
56	7225	143.9	0
56	7225	144	0
56	7225	144.1	0
56	7225	144.2	0
56	7225	144.3	0
56	7225	144.4	0
56	7225	144.5	0
56	7225	144.6	0
56	7225	144.7	0
56	7225	144.8	0
56	7225	144.9	0
56	7225	145	0
56	7225	145.1	0
56	7225	145.2	0
56	7225	145.3	0
56	7225	145.4	0
56	7225	145.5	0
56	7225	145.6	0
56	7225	145.7	0
56	7225	145.8	0
56	7225	145.9	0
56	7225	146	0
56	7225	146.1	0
56	7225	146.2	0
56	7225	146.3	0
56	7225	146.4	0
56	7225	146.5	0
56	7225	146.6	0
56	7225	146.7	0
56	7225	146.8	0
56	7225	146.9	0
56	7225	147	0
56	7225	147.1	0
56	7225	147.2	0
56	7225	147.3	0
56	7225	147.4	0
56	7225	147.5	0
56	7225	147.6	0
56	7225	147.7	0
56	7225	147.8	0
56	7225	147.9	0
56	7225	148	0
56	7225	148.1	0
56	7225	148.2	0
56	7225	148.3	0
56	7225	148.4	0
56	7225	148.5	0
56	7225	148.6	0
56	7225	148.7	0
56	7225	148.8	0
56	7225	148.9	0
56	7225	149	0
56	7225	149.1	0
56	7225	149.2	0
56	7225	149.3	0
56	7225	149.4	0
56	7225	149.5	0
56	7225	149.6	0
56	7225	149.7	0
56	7225	149.8	0
56	7225	149.9	0
56	7225	150	0

