file 315608 1626002549                                          
version 2
run General-0-20210711-18:17:05-2521
attr configname General
attr datetime 20210711-18:17:05
attr experiment General
attr inifile simpledropping.ini
attr iterationvars ""
attr iterationvarsf ""
attr measurement ""
attr network ntuattack.simulations.dropping.SimpleDropongAttack
attr processid 2521
attr repetition 0
attr replication #0
attr resultdir results
attr runnumber 0
attr seedset 0
param **.wlan[*].typename "\"AckingWirelessInterface\""
param **.wlan[*].bitrate 2Mbps
param **.wlan[*].mac.headerLength 23B
param **.wlan[*].radio.typename "\"UnitDiskRadio\""
param **.wlan[*].radio.transmitter.headerLength 96b
param **.wlan[*].radio.transmitter.communicationRange 200m
param **.wlan[*].radio.transmitter.interferenceRange 0m
param **.wlan[*].radio.transmitter.detectionRange 0m
param **.wlan[*].radio.receiver.ignoreInterference true
param **.hasStatus true
param *.visualizer.sceneVisualizer.descriptionFigure "\"title\""
param *.visualizer.mediumVisualizer.displaySignals true
param *.visualizer.physicalLinkVisualizer.displayLinks true
param *.visualizer.dataLinkVisualizer.displayLinks true
param *.visualizer.networkRouteVisualizer.displayRoutes true
param *.sender.numApps 1
param *.sender.app[0].typename "\"UdpBasicApp\""
param *.sender.app[0].destAddresses "\"receiver\""
param *.sender.app[0].destPort 1000
param *.sender.app[0].sendInterval "0.5s + uniform(-0.001s,0.001s)"
param *.sender.app[0].startTime 0s
param *.sender.app[0].messageLength 512Byte
param *.sender.app[0].packetName "\"UDPdata\""
param *.receiver.numApps 1
param *.receiver.app[0].typename "\"UdpSink\""
param *.receiver.app[0].localPort 1000

vector 0 SimpleDropongAttack.sender.wlan[0].radio radioMode:vector ETV
attr interpolationmode sample-hold
attr source radioModeChanged
attr title "Radio mode, vector"
vector 1 SimpleDropongAttack.receiver.wlan[0].radio radioMode:vector ETV
attr interpolationmode sample-hold
attr source radioModeChanged
attr title "Radio mode, vector"
vector 2 SimpleDropongAttack.droper.wlan[0].radio radioMode:vector ETV
attr interpolationmode sample-hold
attr source radioModeChanged
attr title "Radio mode, vector"
vector 3 SimpleDropongAttack.sender.wlan[0].radio receptionState:vector ETV
attr interpolationmode sample-hold
attr source receptionStateChanged
attr title "Radio reception state, vector"
vector 4 SimpleDropongAttack.sender.wlan[0].radio transmissionState:vector ETV
attr interpolationmode sample-hold
attr source transmissionStateChanged
attr title "Radio transmission state, vector"
vector 5 SimpleDropongAttack.receiver.wlan[0].radio receptionState:vector ETV
attr interpolationmode sample-hold
attr source receptionStateChanged
attr title "Radio reception state, vector"
vector 6 SimpleDropongAttack.receiver.wlan[0].radio transmissionState:vector ETV
attr interpolationmode sample-hold
attr source transmissionStateChanged
attr title "Radio transmission state, vector"
vector 7 SimpleDropongAttack.droper.wlan[0].radio receptionState:vector ETV
attr interpolationmode sample-hold
attr source receptionStateChanged
attr title "Radio reception state, vector"
vector 8 SimpleDropongAttack.droper.wlan[0].radio transmissionState:vector ETV
attr interpolationmode sample-hold
attr source transmissionStateChanged
attr title "Radio transmission state, vector"
vector 9 SimpleDropongAttack.sender.app[0] packetSent:vector(packetBytes) ETV
attr interpolationmode none
attr source packetSent
attr title "packets sent, vector(packetBytes)"
0	3483 24 0 0 0 0 3 0 4 4 16
1	3507 24 0 0 0 0 3 0 4 4 16
2	3531 24 0 0 0 0 3 0 4 4 16
3	3555 8 0 0 0 0 1 1 1 1 1
4	3563 8 0 0 0 0 1 1 1 1 1
5	3571 8 0 0 0 0 1 1 1 1 1
6	3579 8 0 0 0 0 1 1 1 1 1
7	3587 8 0 0 0 0 1 1 1 1 1
8	3595 8 0 0 0 0 1 1 1 1 1
9	3603 10 7 7 0 0 1 512 512 512 262144
vector 10 SimpleDropongAttack.sender.udp packetSent:vector(packetBytes) ETV
attr interpolationmode none
attr source packetSent
attr title "packets sent, vector(packetBytes)"
vector 11 SimpleDropongAttack.sender.wlan[0].mac rcvdPkFromHl:vector(packetBytes) ETV
attr interpolationmode none
attr source packetReceivedFromUpper
attr title "packets received from higher layer, vector(packetBytes)"
vector 12 SimpleDropongAttack.sender.wlan[0].mac.queue packetPushed:vector(packetBytes) ETV
attr interpolationmode none
attr title "packet pushed, vector(packetBytes)"
vector 13 SimpleDropongAttack.sender.wlan[0].mac.queue queueLength:vector ETV
attr interpolationmode sample-hold
attr source "count(packetPushed) - count(packetPopped) - count(packetRemoved) - count(packetDropped)"
attr title "queue length, vector"
vector 14 SimpleDropongAttack.sender.wlan[0].mac.queue packetPopped:vector(packetBytes) ETV
attr interpolationmode none
attr title "packet popped, vector(packetBytes)"
vector 15 SimpleDropongAttack.sender.wlan[0].mac.queue queueingTime:vector ETV
attr interpolationmode none
attr source queueingTime(packetPopped)
attr title "queueing times, vector"
attr unit s
vector 16 SimpleDropongAttack.sender.wlan[0].mac sentDownPk:vector(packetBytes) ETV
attr interpolationmode none
attr source packetSentToLower
attr title "packets sent to lower layer, vector(packetBytes)"
vector 17 SimpleDropongAttack.droper.wlan[0].mac rcvdPkFromLl:vector(packetBytes) ETV
attr interpolationmode none
attr source packetReceivedFromLower
attr title "packets received from lower layer, vector(packetBytes)"
vector 18 SimpleDropongAttack.droper.wlan[0].mac passedUpPk:vector(packetBytes) ETV
attr interpolationmode none
attr source packetSentToUpper
attr title "packets passed to higher layer, vector(packetBytes)"
vector 19 SimpleDropongAttack.droper.udp packetReceived:vector(packetBytes) ETV
attr interpolationmode none
attr source packetReceived
attr title "packets received, vector(packetBytes)"
vector 20 SimpleDropongAttack.droper.udp passedUpPk:vector(count) ETV
attr interpolationmode none
attr source packetSentToUpper
attr title "packets passed up, vector(count)"
vector 21 SimpleDropongAttack.droper.udp packetSent:vector(packetBytes) ETV
attr interpolationmode none
attr source packetSent
attr title "packets sent, vector(packetBytes)"
vector 22 SimpleDropongAttack.droper.wlan[0].mac rcvdPkFromHl:vector(packetBytes) ETV
attr interpolationmode none
attr source packetReceivedFromUpper
attr title "packets received from higher layer, vector(packetBytes)"
vector 23 SimpleDropongAttack.droper.wlan[0].mac.queue packetPushed:vector(packetBytes) ETV
attr interpolationmode none
attr title "packet pushed, vector(packetBytes)"
vector 24 SimpleDropongAttack.droper.wlan[0].mac.queue queueLength:vector ETV
attr interpolationmode sample-hold
attr source "count(packetPushed) - count(packetPopped) - count(packetRemoved) - count(packetDropped)"
attr title "queue length, vector"
vector 25 SimpleDropongAttack.droper.wlan[0].mac.queue packetPopped:vector(packetBytes) ETV
attr interpolationmode none
attr title "packet popped, vector(packetBytes)"
vector 26 SimpleDropongAttack.droper.wlan[0].mac.queue queueingTime:vector ETV
attr interpolationmode none
attr source queueingTime(packetPopped)
attr title "queueing times, vector"
attr unit s
vector 27 SimpleDropongAttack.droper.wlan[0].mac sentDownPk:vector(packetBytes) ETV
attr interpolationmode none
attr source packetSentToLower
attr title "packets sent to lower layer, vector(packetBytes)"
vector 28 SimpleDropongAttack.sender.wlan[0].mac rcvdPkFromLl:vector(packetBytes) ETV
attr interpolationmode none
attr source packetReceivedFromLower
attr title "packets received from lower layer, vector(packetBytes)"
vector 29 SimpleDropongAttack.sender.wlan[0].mac passedUpPk:vector(packetBytes) ETV
attr interpolationmode none
attr source packetSentToUpper
attr title "packets passed to higher layer, vector(packetBytes)"
vector 30 SimpleDropongAttack.sender.udp packetReceived:vector(packetBytes) ETV
attr interpolationmode none
attr source packetReceived
attr title "packets received, vector(packetBytes)"
vector 31 SimpleDropongAttack.sender.udp passedUpPk:vector(count) ETV
attr interpolationmode none
attr source packetSentToUpper
attr title "packets passed up, vector(count)"
vector 32 SimpleDropongAttack.receiver.wlan[0].mac rcvdPkFromLl:vector(packetBytes) ETV
attr interpolationmode none
attr source packetReceivedFromLower
attr title "packets received from lower layer, vector(packetBytes)"
vector 33 SimpleDropongAttack.receiver.wlan[0].mac passedUpPk:vector(packetBytes) ETV
attr interpolationmode none
attr source packetSentToUpper
attr title "packets passed to higher layer, vector(packetBytes)"
vector 34 SimpleDropongAttack.receiver.udp packetReceived:vector(packetBytes) ETV
attr interpolationmode none
attr source packetReceived
attr title "packets received, vector(packetBytes)"
vector 35 SimpleDropongAttack.receiver.udp passedUpPk:vector(count) ETV
attr interpolationmode none
attr source packetSentToUpper
attr title "packets passed up, vector(count)"
vector 36 SimpleDropongAttack.receiver.udp packetSent:vector(packetBytes) ETV
attr interpolationmode none
attr source packetSent
attr title "packets sent, vector(packetBytes)"
vector 37 SimpleDropongAttack.receiver.ipv4.arp arpRequestSent:vector(packetBytes) ETV
attr source arpRequestSent
attr title "ARP request sent, vector(packetBytes)"
vector 38 SimpleDropongAttack.receiver.wlan[0].mac rcvdPkFromHl:vector(packetBytes) ETV
attr interpolationmode none
attr source packetReceivedFromUpper
attr title "packets received from higher layer, vector(packetBytes)"
vector 39 SimpleDropongAttack.receiver.wlan[0].mac.queue packetPushed:vector(packetBytes) ETV
attr interpolationmode none
attr title "packet pushed, vector(packetBytes)"
vector 40 SimpleDropongAttack.receiver.wlan[0].mac.queue queueLength:vector ETV
attr interpolationmode sample-hold
attr source "count(packetPushed) - count(packetPopped) - count(packetRemoved) - count(packetDropped)"
attr title "queue length, vector"
vector 41 SimpleDropongAttack.receiver.wlan[0].mac.queue packetPopped:vector(packetBytes) ETV
attr interpolationmode none
attr title "packet popped, vector(packetBytes)"
vector 42 SimpleDropongAttack.receiver.wlan[0].mac.queue queueingTime:vector ETV
attr interpolationmode none
attr source queueingTime(packetPopped)
attr title "queueing times, vector"
attr unit s
vector 43 SimpleDropongAttack.receiver.wlan[0].mac sentDownPk:vector(packetBytes) ETV
attr interpolationmode none
attr source packetSentToLower
attr title "packets sent to lower layer, vector(packetBytes)"
vector 44 SimpleDropongAttack.droper.ipv4.arp arpReplySent:vector(packetBytes) ETV
attr source arpReplySent
attr title "ARP replies sent, vector(packetBytes)"
vector 45 SimpleDropongAttack.sender.wlan[0].mac packetDropNotAddressedToUs:vector(packetBytes) ETV
attr interpolationmode none
attr source packetDropReasonIsNotAddressedToUs(packetDropped)
attr title "packet drop: not addressed to us, vector(packetBytes)"
vector 46 SimpleDropongAttack.droper.ipv4.arp arpRequestSent:vector(packetBytes) ETV
attr source arpRequestSent
attr title "ARP request sent, vector(packetBytes)"
vector 47 SimpleDropongAttack.sender.ipv4.arp arpReplySent:vector(packetBytes) ETV
attr source arpReplySent
attr title "ARP replies sent, vector(packetBytes)"
vector 48 SimpleDropongAttack.receiver.wlan[0].mac packetDropNotAddressedToUs:vector(packetBytes) ETV
attr interpolationmode none
attr source packetDropReasonIsNotAddressedToUs(packetDropped)
attr title "packet drop: not addressed to us, vector(packetBytes)"
vector 49 SimpleDropongAttack.receiver.app[0] packetReceived:vector(packetBytes) ETV
attr interpolationmode none
attr source packetReceived
attr title "packets received, vector(packetBytes)"
vector 50 SimpleDropongAttack.receiver.app[0] endToEndDelay:vector ETV
attr interpolationmode none
attr source dataAge(packetReceived)
attr title "end-to-end delay, vector"
attr unit s
vector 51 SimpleDropongAttack.receiver.app[0] rcvdPkSeqNo:vector ETV
attr interpolationmode none
attr source appPkSeqNo(packetReceived)
attr title "received packet sequence number, vector"
vector 52 SimpleDropongAttack.receiver.app[0] throughput:vector ETV
attr source throughput(packetReceived)
attr title "throughput, vector"
attr unit bps
3	11998 592 33 357 0.008146400145 4.006368607007 26 1 3 52 130
4	12590 502 18 347 0.003575946825 4.004067482407 22 1 2 33 55
5	13092 590 34 359 0.008146443372 4.006368650234 26 1 3 52 130
6	13682 88 49 71 0.008494443372 0.009331654426 4 1 2 6 10
7	13770 590 19 348 0.003576509125 4.004068044707 26 1 3 52 130
8	14360 592 32 356 0.008145837845 4.006368044707 26 1 2 39 65
9	14952 200 144 340 0.500185689233 4.001767482407 8 512 512 4096 2097152
10	15152 244 10 341 0 4.001767482407 10 32 520 4712 2434624
11	15396 282 17 343 0.003575946825 4.001767482407 11 28 540 4940 2627888
12	15678 282 17 343 0.003575946825 4.001767482407 11 28 540 4940 2627888
13	15960 524 17 343 0.003575946825 4.001767482407 22 0 1 11 11
14	16484 282 17 343 0.003575946825 4.001767482407 11 28 540 4940 2627888
15	16766 262 17 343 0.003575946825 4.001767482407 11 0 0 0 0
16	17028 282 17 343 0.003575946825 4.001767482407 11 51 563 5193 2860947
17	17310 330 23 349 0.003924509125 4.004068044707 13 51 563 5315 2868589
18	17640 330 23 349 0.003924509125 4.004068044707 13 28 540 5016 2630976
19	17970 48 25 75 0.003924509125 0.009332259953 2 28 32 60 1808
20	18018 46 25 75 0.003924509125 0.009332259953 2 1 2 3 5
21	18064 48 29 79 0.008145837845 0.012346076805 2 28 32 60 1808
22	18112 331 31 351 0.008145837845 4.004068044707 13 28 540 5016 2630976
23	18443 331 31 351 0.008145837845 4.004068044707 13 28 540 5016 2630976
24	18774 618 31 351 0.008145837845 4.004068044707 26 0 1 13 13
25	19392 331 31 351 0.008145837845 4.004068044707 13 28 540 5016 2630976
26	19723 309 31 351 0.008145837845 4.004068044707 13 0 0 0 0
27	20032 331 31 351 0.008145837845 4.004068044707 13 51 563 5315 2868589
28	20363 331 37 358 0.008494400145 4.006368607007 13 51 563 5315 2868589
29	20694 73 37 107 0.008494400145 0.013183763705 3 28 52 128 5792
30	20767 49 39 109 0.008494400145 0.013183763705 2 28 32 60 1808
31	20816 47 39 109 0.008494400145 0.013183763705 2 1 2 3 5
32	20863 330 42 360 0.008494443372 4.006368650234 13 51 563 5315 2868589
33	21193 305 42 360 0.008494443372 4.006368650234 12 28 540 4968 2628672
34	21498 257 44 362 0.008494443372 4.006368650234 10 32 520 4712 2434624
35	21755 239 44 362 0.008494443372 4.006368650234 10 1 10 55 385
36	21994 24 46 46 0.008494443372 0.008494443372 1 28 28 28 784
37	22018 24 47 47 0.008494443372 0.008494443372 1 28 28 28 784
38	22042 48 48 67 0.008494443372 0.008999654426 2 28 48 76 3088
39	22090 48 48 67 0.008494443372 0.008999654426 2 28 48 76 3088
40	22138 92 48 67 0.008494443372 0.008999654426 4 0 1 2 2
41	22230 48 48 67 0.008494443372 0.008999654426 2 28 48 76 3088
42	22278 46 48 67 0.008494443372 0.008999654426 2 0 0 0 0
43	22324 48 48 67 0.008494443372 0.008999654426 2 51 71 122 7642
44	22372 24 55 55 0.008747048899 0.008747048899 1 28 28 28 784
45	22396 258 63 358 0.008999611199 4.006368607007 10 51 563 5118 2855322
46	22654 24 80 80 0.012346076805 0.012346076805 1 28 28 28 784
47	22678 24 88 88 0.012598639105 0.012598639105 1 28 28 28 784
48	22702 25 114 114 0.013183806932 0.013183806932 1 71 71 71 5041
49	22727 233 134 363 0.017784931532 4.006368650234 9 512 512 4608 2359296
50	22960 332 134 363 0.017784931532 4.006368650234 9 0.004601167827 0.017784931532 0.054594274148 0.00048566975257569
51	23292 215 134 363 0.017784931532 4.006368650234 9 0 8 36 204
52	23507 544 167 363 0.1 4 40 0 40960 327680 13421772800
3	24051 138 380 439 4.504652057074 5.507145936045 6 1 3 12 30
4	24189 138 370 429 4.502350932474 5.504844811445 6 1 2 9 15
5	24327 138 381 441 4.504652100301 5.507145979272 6 1 3 12 30
7	24465 138 371 430 4.502351494774 5.504845373745 6 1 3 12 30
8	24603 138 378 438 4.504651494774 5.507145373745 6 1 2 9 15
9	24741 75 366 422 4.502350932474 5.502544811445 3 512 512 1536 786432
10	24816 78 367 423 4.502350932474 5.502544811445 3 520 520 1560 811200
11	24894 78 369 425 4.502350932474 5.502544811445 3 540 540 1620 874800
12	24972 78 369 425 4.502350932474 5.502544811445 3 540 540 1620 874800
13	25050 144 369 425 4.502350932474 5.502544811445 6 0 1 3 3
14	25194 78 369 425 4.502350932474 5.502544811445 3 540 540 1620 874800
15	25272 72 369 425 4.502350932474 5.502544811445 3 0 0 0 0
16	25344 78 369 425 4.502350932474 5.502544811445 3 563 563 1689 950907
17	25422 78 375 431 4.504651494774 5.504845373745 3 563 563 1689 950907
18	25500 78 375 431 4.504651494774 5.504845373745 3 540 540 1620 874800
22	25578 78 377 433 4.504651494774 5.504845373745 3 540 540 1620 874800
23	25656 78 377 433 4.504651494774 5.504845373745 3 540 540 1620 874800
24	25734 144 377 433 4.504651494774 5.504845373745 6 0 1 3 3
25	25878 78 377 433 4.504651494774 5.504845373745 3 540 540 1620 874800
26	25956 72 377 433 4.504651494774 5.504845373745 3 0 0 0 0
27	26028 78 377 433 4.504651494774 5.504845373745 3 563 563 1689 950907
28	26106 78 384 440 4.506952057074 5.507145936045 3 563 563 1689 950907
32	26184 78 386 442 4.506952100301 5.507145979272 3 563 563 1689 950907
33	26262 78 386 442 4.506952100301 5.507145979272 3 540 540 1620 874800
34	26340 78 388 444 4.506952100301 5.507145979272 3 520 520 1560 811200
35	26418 75 388 444 4.506952100301 5.507145979272 3 11 13 36 434
45	26493 78 384 440 4.506952057074 5.507145936045 3 563 563 1689 950907
49	26571 78 389 445 4.506952100301 5.507145979272 3 512 512 1536 786432
50	26649 111 389 445 4.506952100301 5.507145979272 3 0.004601167827 0.004601167827 0.013803503481 6.351223611666e-05
51	26760 74 389 445 4.506952100301 5.507145979272 3 9 11 30 302
52	26834 205 389 445 4.1 5.5 15 0 40960 122880 5033164800
3	27039 272 467 608 6.005697129311 8.50657545002 12 1 3 24 60
4	27311 272 457 597 6.003396004711 8.50427432542 12 1 2 18 30
5	27583 276 468 610 6.005697172538 8.506575493247 12 1 3 24 60
7	27859 272 458 598 6.003396567011 8.50427488772 12 1 3 24 60
8	28131 272 465 607 6.005696567011 8.50657488772 12 1 2 18 30
9	28403 148 453 589 6.003396004711 8.50197432542 6 512 512 3072 1572864
10	28551 154 454 590 6.003396004711 8.50197432542 6 520 520 3120 1622400
11	28705 154 456 592 6.003396004711 8.50197432542 6 540 540 3240 1749600
12	28859 154 456 592 6.003396004711 8.50197432542 6 540 540 3240 1749600
13	29013 284 456 592 6.003396004711 8.50197432542 12 0 1 6 6
14	29297 154 456 592 6.003396004711 8.50197432542 6 540 540 3240 1749600
15	29451 142 456 592 6.003396004711 8.50197432542 6 0 0 0 0
16	29593 154 456 592 6.003396004711 8.50197432542 6 563 563 3378 1901814
17	29747 154 462 599 6.005696567011 8.50427488772 6 563 563 3378 1901814
18	29901 154 462 599 6.005696567011 8.50427488772 6 540 540 3240 1749600
22	30055 154 464 601 6.005696567011 8.50427488772 6 540 540 3240 1749600
23	30209 154 464 601 6.005696567011 8.50427488772 6 540 540 3240 1749600
24	30363 284 464 601 6.005696567011 8.50427488772 12 0 1 6 6
25	30647 154 464 601 6.005696567011 8.50427488772 6 540 540 3240 1749600
26	30801 142 464 601 6.005696567011 8.50427488772 6 0 0 0 0
27	30943 154 464 601 6.005696567011 8.50427488772 6 563 563 3378 1901814
28	31097 154 471 609 6.007997129311 8.50657545002 6 563 563 3378 1901814
32	31251 156 473 611 6.007997172538 8.506575493247 6 563 563 3378 1901814
33	31407 156 473 611 6.007997172538 8.506575493247 6 540 540 3240 1749600
34	31563 156 475 613 6.007997172538 8.506575493247 6 520 520 3120 1622400
35	31719 150 475 613 6.007997172538 8.506575493247 6 14 19 99 1651
45	31869 154 471 609 6.007997129311 8.50657545002 6 563 563 3378 1901814
49	32023 156 476 614 6.007997172538 8.506575493247 6 512 512 3072 1572864
50	32179 222 476 614 6.007997172538 8.506575493247 6 0.004601167827 0.004601167827 0.027607006962 0.00012702447223332
51	32401 150 476 614 6.007997172538 8.506575493247 6 12 17 87 1279
52	32551 408 476 614 5.6 8.5 30 0 40960 245760 10066329600
3	32959 46 634 637 9.005015474311 9.007315474311 2 1 3 4 10
4	33005 46 624 627 9.002714349711 9.005014349711 2 1 2 3 5
5	33051 46 635 639 9.005015517538 9.007315517538 2 1 3 4 10
7	33097 46 625 628 9.002714912011 9.005014912011 2 1 3 4 10
8	33143 46 632 636 9.005014912011 9.007314912011 2 1 2 3 5
9	33189 25 620 620 9.002714349711 9.002714349711 1 512 512 512 262144
10	33214 26 621 621 9.002714349711 9.002714349711 1 520 520 520 270400
11	33240 26 623 623 9.002714349711 9.002714349711 1 540 540 540 291600
12	33266 26 623 623 9.002714349711 9.002714349711 1 540 540 540 291600
13	33292 48 623 623 9.002714349711 9.002714349711 2 0 1 1 1
14	33340 26 623 623 9.002714349711 9.002714349711 1 540 540 540 291600
15	33366 24 623 623 9.002714349711 9.002714349711 1 0 0 0 0
16	33390 26 623 623 9.002714349711 9.002714349711 1 563 563 563 316969
17	33416 26 629 629 9.005014912011 9.005014912011 1 563 563 563 316969
18	33442 26 629 629 9.005014912011 9.005014912011 1 540 540 540 291600
22	33468 26 631 631 9.005014912011 9.005014912011 1 540 540 540 291600
23	33494 26 631 631 9.005014912011 9.005014912011 1 540 540 540 291600
24	33520 48 631 631 9.005014912011 9.005014912011 2 0 1 1 1
25	33568 26 631 631 9.005014912011 9.005014912011 1 540 540 540 291600
26	33594 24 631 631 9.005014912011 9.005014912011 1 0 0 0 0
27	33618 26 631 631 9.005014912011 9.005014912011 1 563 563 563 316969
28	33644 26 638 638 9.007315474311 9.007315474311 1 563 563 563 316969
32	33670 26 640 640 9.007315517538 9.007315517538 1 563 563 563 316969
33	33696 26 640 640 9.007315517538 9.007315517538 1 540 540 540 291600
34	33722 26 642 642 9.007315517538 9.007315517538 1 520 520 520 270400
35	33748 25 642 642 9.007315517538 9.007315517538 1 20 20 20 400
45	33773 26 638 638 9.007315474311 9.007315474311 1 563 563 563 316969
49	33799 26 643 643 9.007315517538 9.007315517538 1 512 512 512 262144
50	33825 37 643 643 9.007315517538 9.007315517538 1 0.004601167827 0.004601167827 0.004601167827 2.117074537222e-05
51	33862 25 643 643 9.007315517538 9.007315517538 1 18 18 18 324
52	33887 67 643 643 8.6 9 5 0 40960 40960 1677721600
vector 53 SimpleDropongAttack.droper.ipv4.ip rcvdPkt:vector ETV
attr interpolationmode none
attr title "Number of packet received, vector"
vector 54 SimpleDropongAttack.droper.ipv4.ip droppings:vector ETV
attr interpolationmode none
attr title "Number of drops, vector"
3	34224 46 660 663 9.505972710997 9.508272710997 2 1 3 4 10
4	34270 94 650 683 9.503671586397 10.006569903525 4 1 2 6 10
5	34364 46 661 665 9.505972754224 9.508272754224 2 1 3 4 10
7	34410 94 651 684 9.503672148697 10.006570465825 4 1 3 8 20
8	34504 46 658 662 9.505972148697 9.508272148697 2 1 2 3 5
9	34550 51 646 676 9.503671586397 10.004269903525 2 512 512 1024 524288
10	34601 53 647 677 9.503671586397 10.004269903525 2 520 520 1040 540800
11	34654 53 649 679 9.503671586397 10.004269903525 2 540 540 1080 583200
12	34707 53 649 679 9.503671586397 10.004269903525 2 540 540 1080 583200
13	34760 98 649 679 9.503671586397 10.004269903525 4 0 1 2 2
14	34858 53 649 679 9.503671586397 10.004269903525 2 540 540 1080 583200
15	34911 49 649 679 9.503671586397 10.004269903525 2 0 0 0 0
16	34960 53 649 679 9.503671586397 10.004269903525 2 563 563 1126 633938
17	35013 53 655 685 9.505972148697 10.006570465825 2 563 563 1126 633938
18	35066 53 655 685 9.505972148697 10.006570465825 2 540 540 1080 583200
22	35119 26 657 657 9.505972148697 9.505972148697 1 540 540 540 291600
23	35145 26 657 657 9.505972148697 9.505972148697 1 540 540 540 291600
24	35171 48 657 657 9.505972148697 9.505972148697 2 0 1 1 1
25	35219 26 657 657 9.505972148697 9.505972148697 1 540 540 540 291600
26	35245 24 657 657 9.505972148697 9.505972148697 1 0 0 0 0
27	35269 26 657 657 9.505972148697 9.505972148697 1 563 563 563 316969
28	35295 26 664 664 9.508272710997 9.508272710997 1 563 563 563 316969
32	35321 26 666 666 9.508272754224 9.508272754224 1 563 563 563 316969
33	35347 26 666 666 9.508272754224 9.508272754224 1 540 540 540 291600
34	35373 26 668 668 9.508272754224 9.508272754224 1 520 520 520 270400
35	35399 25 668 668 9.508272754224 9.508272754224 1 21 21 21 441
45	35424 26 664 664 9.508272710997 9.508272710997 1 563 563 563 316969
49	35450 26 669 669 9.508272754224 9.508272754224 1 512 512 512 262144
50	35476 37 669 669 9.508272754224 9.508272754224 1 0.004601167827 0.004601167827 0.004601167827 2.117074537222e-05
51	35513 25 669 669 9.508272754224 9.508272754224 1 19 19 19 361
52	35538 69 669 669 9.1 9.5 5 0 40960 40960 1677721600
53	35607 25 686 686 10.006570465825 10.006570465825 1 1 1 1 1
54	35632 25 686 686 10.006570465825 10.006570465825 1 1 1 1 1
4	35657 96 693 712 10.504192862251 11.006850621318 4 1 2 6 10
7	35753 96 694 713 10.504193424551 11.006851183618 4 1 3 8 20
9	35849 52 689 705 10.504192862251 11.004550621318 2 512 512 1024 524288
10	35901 54 690 706 10.504192862251 11.004550621318 2 520 520 1040 540800
11	35955 54 692 708 10.504192862251 11.004550621318 2 540 540 1080 583200
12	36009 54 692 708 10.504192862251 11.004550621318 2 540 540 1080 583200
13	36063 100 692 708 10.504192862251 11.004550621318 4 0 1 2 2
14	36163 54 692 708 10.504192862251 11.004550621318 2 540 540 1080 583200
15	36217 50 692 708 10.504192862251 11.004550621318 2 0 0 0 0
16	36267 54 692 708 10.504192862251 11.004550621318 2 563 563 1126 633938
17	36321 54 698 714 10.506493424551 11.006851183618 2 563 563 1126 633938
18	36375 54 698 714 10.506493424551 11.006851183618 2 540 540 1080 583200
53	36429 50 699 715 10.506493424551 11.006851183618 2 2 3 5 13
54	36479 50 699 715 10.506493424551 11.006851183618 2 2 3 5 13
4	36529 3798 724 1847 11.504830463352 49.506230957261 154 1 2 231 385
7	40327 3798 725 1848 11.504831025652 49.506231519561 154 1 3 308 770
9	44125 2053 720 1840 11.504830463352 49.503930957261 77 512 512 39424 20185088
10	46178 2130 721 1841 11.504830463352 49.503930957261 77 520 520 40040 20820800
11	48308 2130 723 1843 11.504830463352 49.503930957261 77 540 540 41580 22453200
12	50438 2130 723 1843 11.504830463352 49.503930957261 77 540 540 41580 22453200
13	52568 3952 723 1843 11.504830463352 49.503930957261 154 0 1 77 77
14	56520 2130 723 1843 11.504830463352 49.503930957261 77 540 540 41580 22453200
15	58650 1976 723 1843 11.504830463352 49.503930957261 77 0 0 0 0
16	60626 2130 723 1843 11.504830463352 49.503930957261 77 563 563 43351 24406613
17	62756 2130 729 1849 11.507131025652 49.506231519561 77 563 563 43351 24406613
18	64886 2130 729 1849 11.507131025652 49.506231519561 77 540 540 41580 22453200
53	67016 2047 730 1850 11.507131025652 49.506231519561 77 4 80 3234 173866
54	69063 2047 730 1850 11.507131025652 49.506231519561 77 4 80 3234 173866
4	71110 998 1860 2141 50.003213485067 59.504814574226 40 1 2 60 100
7	72108 998 1861 2142 50.003214047367 59.504815136526 40 1 3 80 200
9	73106 539 1856 2134 50.003213485067 59.502514574226 20 512 512 10240 5242880
10	73645 559 1857 2135 50.003213485067 59.502514574226 20 520 520 10400 5408000
11	74204 559 1859 2137 50.003213485067 59.502514574226 20 540 540 10800 5832000
12	74763 559 1859 2137 50.003213485067 59.502514574226 20 540 540 10800 5832000
13	75322 1038 1859 2137 50.003213485067 59.502514574226 40 0 1 20 20
14	76360 559 1859 2137 50.003213485067 59.502514574226 20 540 540 10800 5832000
15	76919 519 1859 2137 50.003213485067 59.502514574226 20 0 0 0 0
16	77438 559 1859 2137 50.003213485067 59.502514574226 20 563 563 11260 6339380
17	77997 559 1865 2143 50.005514047367 59.504815136526 20 563 563 11260 6339380
18	78556 559 1865 2143 50.005514047367 59.504815136526 20 540 540 10800 5832000
53	79115 540 1866 2144 50.005514047367 59.504815136526 20 81 100 1810 164470
54	79655 540 1866 2144 50.005514047367 59.504815136526 20 81 100 1810 164470
3	80195 148 2168 2228 60.00569224805 60.506494789761 6 1 3 12 30
4	80343 98 2155 2218 60.00249367211 60.504193665161 4 1 2 6 10
5	80441 150 2169 2230 60.005692291277 60.506494832988 6 1 3 12 30
6	80591 50 2184 2187 60.006040291277 60.006372291277 2 1 2 3 5
7	80641 148 2156 2219 60.00249423441 60.504194227461 6 1 3 12 30
8	80789 148 2167 2227 60.00569168575 60.506494227461 6 1 2 9 15
9	80937 53 2151 2211 60.00249367211 60.501893665161 2 512 512 1024 524288
10	80990 55 2152 2212 60.00249367211 60.501893665161 2 520 520 1040 540800
11	81045 55 2154 2214 60.00249367211 60.501893665161 2 540 540 1080 583200
12	81100 55 2154 2214 60.00249367211 60.501893665161 2 540 540 1080 583200
13	81155 102 2154 2214 60.00249367211 60.501893665161 4 0 1 2 2
14	81257 55 2154 2214 60.00249367211 60.501893665161 2 540 540 1080 583200
15	81312 51 2154 2214 60.00249367211 60.501893665161 2 0 0 0 0
16	81363 55 2154 2214 60.00249367211 60.501893665161 2 563 563 1126 633938
17	81418 82 2160 2220 60.00479423441 60.504194227461 3 71 563 1197 638979
18	81500 82 2160 2220 60.00479423441 60.504194227461 3 48 540 1128 585504
19	81582 27 2191 2191 60.006372896804 60.006372896804 1 28 28 28 784
20	81609 26 2191 2191 60.006372896804 60.006372896804 1 3 3 3 9
21	81635 26 2164 2164 60.00569168575 60.00569168575 1 32 32 32 1024
22	81661 82 2166 2222 60.00569168575 60.504194227461 3 52 540 1132 585904
23	81743 82 2166 2222 60.00569168575 60.504194227461 3 52 540 1132 585904
24	81825 154 2166 2222 60.00569168575 60.504194227461 6 0 1 3 3
25	81979 82 2166 2222 60.00569168575 60.504194227461 3 52 540 1132 585904
26	82061 77 2166 2222 60.00569168575 60.504194227461 3 0 0 0 0
27	82138 82 2166 2222 60.00569168575 60.504194227461 3 75 563 1201 639563
28	82220 82 2172 2229 60.00604024805 60.506494789761 3 75 563 1201 639563
29	82302 26 2172 2172 60.00604024805 60.00604024805 1 52 52 52 2704
30	82328 26 2174 2174 60.00604024805 60.00604024805 1 32 32 32 1024
31	82354 25 2174 2174 60.00604024805 60.00604024805 1 3 3 3 9
32	82379 83 2177 2231 60.006040291277 60.506494832988 3 75 563 1201 639563
33	82462 83 2177 2231 60.006040291277 60.506494832988 3 52 540 1132 585904
34	82545 83 2179 2233 60.006040291277 60.506494832988 3 32 520 1072 541824
35	82628 81 2179 2233 60.006040291277 60.506494832988 3 22 24 69 1589
36	82709 27 2181 2181 60.006040291277 60.006040291277 1 28 28 28 784
38	82736 27 2183 2183 60.006040291277 60.006040291277 1 48 48 48 2304
39	82763 27 2183 2183 60.006040291277 60.006040291277 1 48 48 48 2304
40	82790 52 2183 2183 60.006040291277 60.006040291277 2 0 1 1 1
41	82842 27 2183 2183 60.006040291277 60.006040291277 1 48 48 48 2304
42	82869 26 2183 2183 60.006040291277 60.006040291277 1 0 0 0 0
43	82895 27 2183 2183 60.006040291277 60.006040291277 1 71 71 71 5041
45	82922 56 2200 2229 60.008673459104 60.506494789761 2 563 563 1126 633938
49	82978 56 2205 2234 60.008673502331 60.506494832988 2 512 512 1024 524288
50	83034 78 2205 2234 60.008673502331 60.506494832988 2 0.004601167827 0.006179830221 0.010780998048 5.9361046932605e-05
51	83112 56 2205 2234 60.008673502331 60.506494832988 2 120 121 241 29041
52	83168 7552 2205 2234 9.6 60.5 510 0 40960 81920 3355443200
53	90720 55 2161 2221 60.00479423441 60.504194227461 2 101 102 203 20605
3	90775 50 2254 2257 61.003536762947 61.005836762947 2 1 3 4 10
4	90825 50 2244 2247 61.001235638347 61.003535638347 2 1 2 3 5
5	90875 50 2255 2259 61.003536806174 61.005836806174 2 1 3 4 10
7	90925 50 2245 2248 61.001236200647 61.003536200647 2 1 3 4 10
8	90975 50 2252 2256 61.003536200647 61.005836200647 2 1 2 3 5
9	91025 27 2240 2240 61.001235638347 61.001235638347 1 512 512 512 262144
10	91052 28 2241 2241 61.001235638347 61.001235638347 1 520 520 520 270400
11	91080 28 2243 2243 61.001235638347 61.001235638347 1 540 540 540 291600
12	91108 28 2243 2243 61.001235638347 61.001235638347 1 540 540 540 291600
13	91136 52 2243 2243 61.001235638347 61.001235638347 2 0 1 1 1
14	91188 28 2243 2243 61.001235638347 61.001235638347 1 540 540 540 291600
15	91216 26 2243 2243 61.001235638347 61.001235638347 1 0 0 0 0
16	91242 28 2243 2243 61.001235638347 61.001235638347 1 563 563 563 316969
17	91270 28 2249 2249 61.003536200647 61.003536200647 1 563 563 563 316969
18	91298 28 2249 2249 61.003536200647 61.003536200647 1 540 540 540 291600
22	91326 28 2251 2251 61.003536200647 61.003536200647 1 540 540 540 291600
23	91354 28 2251 2251 61.003536200647 61.003536200647 1 540 540 540 291600
24	91382 52 2251 2251 61.003536200647 61.003536200647 2 0 1 1 1
25	91434 28 2251 2251 61.003536200647 61.003536200647 1 540 540 540 291600
26	91462 26 2251 2251 61.003536200647 61.003536200647 1 0 0 0 0
27	91488 28 2251 2251 61.003536200647 61.003536200647 1 563 563 563 316969
28	91516 28 2258 2258 61.005836762947 61.005836762947 1 563 563 563 316969
32	91544 28 2260 2260 61.005836806174 61.005836806174 1 563 563 563 316969
33	91572 28 2260 2260 61.005836806174 61.005836806174 1 540 540 540 291600
34	91600 28 2262 2262 61.005836806174 61.005836806174 1 520 520 520 270400
35	91628 27 2262 2262 61.005836806174 61.005836806174 1 25 25 25 625
45	91655 28 2258 2258 61.005836762947 61.005836762947 1 563 563 563 316969
49	91683 28 2263 2263 61.005836806174 61.005836806174 1 512 512 512 262144
50	91711 39 2263 2263 61.005836806174 61.005836806174 1 0.004601167827 0.004601167827 0.004601167827 2.117074537222e-05
51	91750 28 2263 2263 61.005836806174 61.005836806174 1 122 122 122 14884
52	91778 77 2263 2263 60.6 61 5 0 40960 40960 1677721600
53	91855 28 2250 2250 61.003536200647 61.003536200647 1 103 103 103 10609
3	91883 50 2280 2283 61.503463664899 61.505763664899 2 1 3 4 10
4	91933 50 2270 2273 61.501162540299 61.503462540299 2 1 2 3 5
5	91983 50 2281 2285 61.503463708126 61.505763708126 2 1 3 4 10
7	92033 50 2271 2274 61.501163102599 61.503463102599 2 1 3 4 10
8	92083 50 2278 2282 61.503463102599 61.505763102599 2 1 2 3 5
9	92133 27 2266 2266 61.501162540299 61.501162540299 1 512 512 512 262144
10	92160 28 2267 2267 61.501162540299 61.501162540299 1 520 520 520 270400
11	92188 28 2269 2269 61.501162540299 61.501162540299 1 540 540 540 291600
12	92216 28 2269 2269 61.501162540299 61.501162540299 1 540 540 540 291600
13	92244 52 2269 2269 61.501162540299 61.501162540299 2 0 1 1 1
14	92296 28 2269 2269 61.501162540299 61.501162540299 1 540 540 540 291600
15	92324 26 2269 2269 61.501162540299 61.501162540299 1 0 0 0 0
16	92350 28 2269 2269 61.501162540299 61.501162540299 1 563 563 563 316969
17	92378 28 2275 2275 61.503463102599 61.503463102599 1 563 563 563 316969
18	92406 28 2275 2275 61.503463102599 61.503463102599 1 540 540 540 291600
22	92434 28 2277 2277 61.503463102599 61.503463102599 1 540 540 540 291600
23	92462 28 2277 2277 61.503463102599 61.503463102599 1 540 540 540 291600
24	92490 52 2277 2277 61.503463102599 61.503463102599 2 0 1 1 1
25	92542 28 2277 2277 61.503463102599 61.503463102599 1 540 540 540 291600
26	92570 26 2277 2277 61.503463102599 61.503463102599 1 0 0 0 0
27	92596 28 2277 2277 61.503463102599 61.503463102599 1 563 563 563 316969
28	92624 28 2284 2284 61.505763664899 61.505763664899 1 563 563 563 316969
32	92652 28 2286 2286 61.505763708126 61.505763708126 1 563 563 563 316969
33	92680 28 2286 2286 61.505763708126 61.505763708126 1 540 540 540 291600
34	92708 28 2288 2288 61.505763708126 61.505763708126 1 520 520 520 270400
35	92736 27 2288 2288 61.505763708126 61.505763708126 1 26 26 26 676
45	92763 28 2284 2284 61.505763664899 61.505763664899 1 563 563 563 316969
49	92791 28 2289 2289 61.505763708126 61.505763708126 1 512 512 512 262144
50	92819 39 2289 2289 61.505763708126 61.505763708126 1 0.004601167827 0.004601167827 0.004601167827 2.117074537222e-05
51	92858 28 2289 2289 61.505763708126 61.505763708126 1 123 123 123 15129
52	92886 79 2289 2289 61.1 61.5 5 0 40960 40960 1677721600
53	92965 28 2276 2276 61.503463102599 61.503463102599 1 104 104 104 10816
vector 55 SimpleDropongAttack.receiver.ipv4.arp arpReplySent:vector(packetBytes) ETV
attr source arpReplySent
attr title "ARP replies sent, vector(packetBytes)"
vector 56 SimpleDropongAttack.sender.app[0] throughput:vector ETV
attr source throughput(packetReceived)
attr title "throughput, vector"
attr unit bps
3	93305 9002 2309 7213 62.004212810823 149.516135922385 354 1 3 708 1770
4	102307 8952 2299 7203 62.001911686223 149.513834797785 352 1 2 528 880
5	111259 9022 2310 7215 62.00421285405 149.516135965612 354 1 3 708 1770
6	120281 52 5555 5558 120.013563124495 120.013815124495 2 1 2 3 5
7	120333 9004 2300 7204 62.001912248523 149.513835360085 354 1 3 708 1770
8	129337 9004 2307 7212 62.004212248523 149.516135360085 354 1 2 531 885
9	138341 4828 2295 7196 62.001911686223 149.511534797785 176 512 512 90112 46137344
10	143169 5004 2296 7197 62.001911686223 149.511534797785 176 520 520 91520 47590400
11	148173 5004 2298 7199 62.001911686223 149.511534797785 176 540 540 95040 51321600
12	153177 5004 2298 7199 62.001911686223 149.511534797785 176 540 540 95040 51321600
13	158181 9304 2298 7199 62.001911686223 149.511534797785 352 0 1 176 176
14	167485 5004 2298 7199 62.001911686223 149.511534797785 176 540 540 95040 51321600
15	172489 4652 2298 7199 62.001911686223 149.511534797785 176 0 0 0 0
16	177141 5004 2298 7199 62.001911686223 149.511534797785 176 563 563 99088 55786544
17	182145 5032 2304 7205 62.004212248523 149.513835360085 177 51 563 99139 55789145
18	187177 5032 2304 7205 62.004212248523 149.513835360085 177 28 540 95068 51322384
22	192209 5032 2306 7207 62.004212248523 149.513835360085 177 28 540 95068 51322384
23	197241 5032 2306 7207 62.004212248523 149.513835360085 177 28 540 95068 51322384
24	202273 9358 2306 7207 62.004212248523 149.513835360085 354 0 1 177 177
25	211631 5032 2306 7207 62.004212248523 149.513835360085 177 28 540 95068 51322384
26	216663 4679 2306 7207 62.004212248523 149.513835360085 177 0 0 0 0
27	221342 5032 2306 7207 62.004212248523 149.513835360085 177 51 563 99139 55789145
28	226374 5031 2313 7214 62.006512810823 149.516135922385 177 51 563 99139 55789145
29	231405 28 5549 5549 120.013563081268 120.013563081268 1 28 28 28 784
32	231433 5041 2315 7216 62.00651285405 149.516135965612 177 51 563 99139 55789145
33	236474 5041 2315 7216 62.00651285405 149.516135965612 177 28 540 95068 51322384
34	241515 5013 2317 7218 62.00651285405 149.516135965612 176 520 520 91520 47590400
35	246528 4940 2317 7218 62.00651285405 149.516135965612 176 27 202 20152 2761704
38	251468 28 5554 5554 120.013563124495 120.013563124495 1 28 28 28 784
39	251496 28 5554 5554 120.013563124495 120.013563124495 1 28 28 28 784
40	251524 54 5554 5554 120.013563124495 120.013563124495 2 0 1 1 1
41	251578 28 5554 5554 120.013563124495 120.013563124495 1 28 28 28 784
42	251606 27 5554 5554 120.013563124495 120.013563124495 1 0 0 0 0
43	251633 28 5554 5554 120.013563124495 120.013563124495 1 51 51 51 2601
45	251661 5003 2313 7214 62.006512810823 149.516135922385 176 563 563 99088 55786544
46	256664 28 5541 5541 120.013310518968 120.013310518968 1 28 28 28 784
49	256692 5013 2318 7219 62.00651285405 149.516135965612 176 512 512 90112 46137344
50	261705 6949 2318 7219 62.00651285405 149.516135965612 176 0.004601167827 0.005106378881 0.810310748606 0.0037309555454148
51	268654 5013 2318 7219 62.00651285405 149.516135965612 176 124 299 37224 8327176
52	273667 14306 2318 7225 61.6 150 885 0 40960 7249920 296956723200
53	287973 5004 2305 7206 62.004212248523 149.513835360085 176 105 280 33880 6976200
55	292977 28 5553 5553 120.013563124495 120.013563124495 1 28 28 28 784
56	293005 22602 7225 7225 0.1 150 1500 0 0 0 0

